<?xml version="1.0" encoding="UTF-8"?>

<!-- generated on 2023-05-05 11:35:53 by Eclipse SUMO duarouter Version 1.16.0
<configuration xmlns:xsi="http://www.w3.org/2001/XMLSchema-instance" xsi:noNamespaceSchemaLocation="http://sumo.dlr.de/xsd/duarouterConfiguration.xsd">

    <input>
        <net-file value="ingolstadt7.net.xml"/>
        <route-files value="ind7-syn3.trips.xml"/>
    </input>

    <output>
        <output-file value="ind7-syn3.rou.xml"/>
    </output>

    <processing>
        <repair value="true"/>
    </processing>

    <report>
        <ignore-errors value="true"/>
    </report>

</configuration>
-->

<routes xmlns:xsi="http://www.w3.org/2001/XMLSchema-instance" xsi:noNamespaceSchemaLocation="http://sumo.dlr.de/xsd/routes_file.xsd">
    <vehicle id="63" depart="57600.79" departLane="free" departSpeed="max" fromTaz="taz_0" toTaz="taz_0">
        <route edges="-173169611#0 201956821#0 201956821#1.68 201956811#0"/>
    </vehicle>
    <vehicle id="3190" depart="57601.88" departLane="free" departSpeed="max" fromTaz="taz_2" toTaz="taz_1">
        <route edges="266565295#5 32999435 32124637#0 32124637#1 168702040#1 168702040#2 168702040#3 168702040#4 -315358253#2 -315358253#1"/>
    </vehicle>
    <vehicle id="283" depart="57602.83" departLane="free" departSpeed="max" fromTaz="taz_0" toTaz="taz_0">
        <route edges="124812856#0 124812856#1 201956810"/>
    </vehicle>
    <vehicle id="3026" depart="57604.33" departLane="free" departSpeed="max" fromTaz="taz_2" toTaz="taz_0">
        <route edges="266565295#5 32999435 32124637#0 32124637#1 168702040#1 168702040#2 168702040#3 168702040#4 168702039#1 32999434#0 201089423#0 201089423#2 32124744 32124743 285716192#0 285716192#0.83 201963535 104010354 124812857#0 201956819#0 201956810"/>
    </vehicle>
    <vehicle id="519" depart="57604.77" departLane="free" departSpeed="max" fromTaz="taz_0" toTaz="taz_1">
        <route edges="-173169611#0 201956821#0 201956821#1.68 201963537#1 104010475#0 104012170 -32124745 -32124743 -32124744 -201089423#2 -201089423#1 -32999434#1 32999110#0 402600768#0 402600768#1 51857517#0 51857517#0.33 51857517#1 51857518#1 32978638#0"/>
    </vehicle>
    <vehicle id="3883" depart="57604.80" departLane="free" departSpeed="max" fromTaz="taz_2" toTaz="taz_2">
        <route edges="315358253#1 315358253#2 402600768#0 402600768#1 51857517#0 51857517#0.33 51857517#1 51857518#1 32978638#0"/>
    </vehicle>
    <vehicle id="3062" depart="57607.36" departLane="free" departSpeed="max" fromTaz="taz_2" toTaz="taz_0">
        <route edges="315358253#1 315358253#2 168702039#1 32999434#0 201089423#0 201089423#2 32124744 32124743 285716192#0 285716192#0.83 201963535 104010354 124812857#0 201956819#0 201956810"/>
    </vehicle>
    <vehicle id="2253" depart="57610.87" departLane="free" departSpeed="max" fromTaz="taz_1" toTaz="taz_2">
        <route edges="24599188#0.94 172488482#0 -32124744 -201089423#2 -201089423#1 -32999434#1 32999110#0 402600768#0 402600768#1 51857517#0 51857517#0.33 51857517#1 51857516#1 -266565295#5"/>
    </vehicle>
    <vehicle id="3018" depart="57611.00" departLane="free" departSpeed="max" fromTaz="taz_2" toTaz="taz_0">
        <route edges="-32978638#0 32021112#0 168702040#1 168702040#2 168702040#3 168702040#4 168702039#1 32999434#0 201089423#0 201089423#2 32124744 32124743 285716192#0 285716192#0.83 201963535 104010354 -164051413 -653473569#5"/>
    </vehicle>
    <vehicle id="245" depart="57611.12" departLane="free" departSpeed="max" fromTaz="taz_0" toTaz="taz_0">
        <route edges="653473569#5 164051413 124812857#0 201956819#0 201956820"/>
    </vehicle>
    <vehicle id="2651" depart="57611.33" departLane="free" departSpeed="max" fromTaz="taz_2" toTaz="taz_0">
        <route edges="266565295#5 32999435 32124637#0 32124637#1 168702040#1 168702040#2 168702040#3 168702040#4 168702039#1 32999434#0 201089423#0 201089423#2 32124744 32124743 285716192#0 285716192#0.83 201963535 104010354 124812857#0 201956819#0 201956820"/>
    </vehicle>
    <vehicle id="2376" depart="57611.57" departLane="free" departSpeed="max" fromTaz="taz_1" toTaz="taz_2">
        <route edges="27920078#0 27920078#1 -32124745 -32124743 -32124744 -201089423#2 -201089423#1 -32999434#1 32999110#0 -315358253#2 -315358253#1"/>
    </vehicle>
    <vehicle id="1580" depart="57614.07" departLane="free" departSpeed="max" fromTaz="taz_1" toTaz="taz_0">
        <route edges="-32978638#0 32021112#0 168702040#1 168702040#2 168702040#3 168702040#4 168702039#1 32999434#0 201089423#0 201089423#2 32124744 32124743 285716192#0 285716192#0.83 201963535 104010354 -164051413 -653473569#5"/>
    </vehicle>
    <vehicle id="3873" depart="57616.08" departLane="free" departSpeed="max" fromTaz="taz_2" toTaz="taz_2">
        <route edges="266565295#5 32999435 32124637#0 32124637#1 168702040#1 168702040#2 168702040#3 168702040#4 -315358253#2 -315358253#1"/>
    </vehicle>
    <vehicle id="88" depart="57616.72" departLane="free" departSpeed="max" fromTaz="taz_0" toTaz="taz_0">
        <route edges="653473569#5 164051413 124812857#0 201956819#0 201956820"/>
    </vehicle>
    <vehicle id="3460" depart="57618.86" departLane="free" departSpeed="max" fromTaz="taz_2" toTaz="taz_1">
        <route edges="-32978638#0 32021112#0 168702040#1 168702040#2 168702040#3 168702040#4 168702039#1 32999434#0 201089423#0 201089423#2 32124744 32124743 285716192#0 285716192#0.83 104010439#1 202070434#0 202070434#2"/>
    </vehicle>
    <vehicle id="749" depart="57618.97" departLane="free" departSpeed="max" fromTaz="taz_0" toTaz="taz_1">
        <route edges="124812856#0 124812856#1 201956821#0 201956821#1.68 201963537#1 104010475#0 104012170 -32124745 172488483#0 -83304175#2"/>
    </vehicle>
    <vehicle id="412" depart="57619.61" departLane="free" departSpeed="max" fromTaz="taz_0" toTaz="taz_1">
        <route edges="124812856#0 124812856#1 201956821#0 201956821#1.68 201963537#1 104010475#0 104012170 -32124745 -32124743 -32124744 -201089423#2 -201089423#1 -32999434#1 32999110#0 402600768#0 402600768#1 51857517#0 51857517#0.33 51857517#1 51857516#1 -266565295#5"/>
    </vehicle>
    <vehicle id="2523" depart="57619.73" departLane="free" departSpeed="max" fromTaz="taz_1" toTaz="taz_2">
        <route edges="27920078#0 27920078#1 -32124745 -32124743 -32124744 -201089423#2 -201089423#1 -32999434#1 32999110#0 402600768#0 402600768#1 51857517#0 51857517#0.33 51857517#1 51857516#1 -266565295#5"/>
    </vehicle>
    <vehicle id="3043" depart="57622.69" departLane="free" departSpeed="max" fromTaz="taz_2" toTaz="taz_0">
        <route edges="266565295#5 32999435 32124637#0 32124637#1 168702040#1 168702040#2 168702040#3 168702040#4 168702039#1 32999434#0 201089423#0 201089423#2 32124744 32124743 285716192#0 285716192#0.83 201963535 104010354 124812857#0 201956819#0 201956820"/>
    </vehicle>
    <vehicle id="1396" depart="57622.82" departLane="free" departSpeed="max" fromTaz="taz_1" toTaz="taz_0">
        <route edges="-32978638#0 32021112#0 168702040#1 168702040#2 168702040#3 168702040#4 168702039#1 32999434#0 201089423#0 201089423#2 32124744 32124743 285716192#0 285716192#0.83 201963535 104010354 124812857#0 201956819#0 201956820"/>
    </vehicle>
    <vehicle id="391" depart="57623.05" departLane="free" departSpeed="max" fromTaz="taz_0" toTaz="taz_0">
        <route edges="124812856#0 124812856#1 201956821#0 201956821#1.68 201963537#1 -164051413 -653473569#5"/>
    </vehicle>
    <vehicle id="1144" depart="57623.89" departLane="free" departSpeed="max" fromTaz="taz_0" toTaz="taz_2">
        <route edges="-173169611#0 201956821#0 201956821#1.68 201963537#1 104010475#0 104012170 -32124745 -32124743 -32124744 -201089423#2 -201089423#1 -32999434#1 32999110#0 402600768#0 402600768#1 51857517#0 51857517#0.33 51857517#1 51857516#1 -266565295#5"/>
    </vehicle>
    <vehicle id="3798" depart="57625.71" departLane="free" departSpeed="max" fromTaz="taz_2" toTaz="taz_2">
        <route edges="-32978638#0 32021112#0 168702040#1 168702040#2 168702040#3 168702040#4 -315358253#2 -315358253#1"/>
    </vehicle>
    <vehicle id="1774" depart="57625.86" departLane="free" departSpeed="max" fromTaz="taz_1" toTaz="taz_0">
        <route edges="-32978638#0 32021112#0 168702040#1 168702040#2 168702040#3 168702040#4 168702039#1 32999434#0 201089423#0 201089423#2 32124744 32124743 285716192#0 285716192#0.83 201963535 104010354 124812857#0 201956819#0 201956820"/>
    </vehicle>
    <vehicle id="3433" depart="57627.26" departLane="free" departSpeed="max" fromTaz="taz_2" toTaz="taz_1">
        <route edges="315358253#1 315358253#2 168702039#1 32999434#0 201089423#0 201089423#2 32124744 32124743 285716192#0 285716192#0.83 104010439#1 202070434#0 202070434#2"/>
    </vehicle>
    <vehicle id="1386" depart="57632.14" departLane="free" departSpeed="max" fromTaz="taz_1" toTaz="taz_0">
        <route edges="315358253#1 315358253#2 168702039#1 32999434#0 201089423#0 201089423#2 32124744 32124743 285716192#0 285716192#0.83 201963535 104010354 124812857#0 201956819#0 201956820"/>
    </vehicle>
    <vehicle id="1751" depart="57635.00" departLane="free" departSpeed="max" fromTaz="taz_1" toTaz="taz_0">
        <route edges="-24693977#1 -24693977#0 201089423#0 201089423#2 32124744 32124743 285716192#0 285716192#0.83 201963535 104010354 124812857#0 201956819#0 201956820"/>
    </vehicle>
    <vehicle id="3671" depart="57635.90" departLane="free" departSpeed="max" fromTaz="taz_2" toTaz="taz_2">
        <route edges="315358253#1 315358253#2 402600768#0 402600768#1 51857517#0 51857517#0.33 51857517#1 51857518#1 32978638#0"/>
    </vehicle>
    <vehicle id="3009" depart="57636.22" departLane="free" departSpeed="max" fromTaz="taz_2" toTaz="taz_0">
        <route edges="-32978638#0 32021112#0 168702040#1 168702040#2 168702040#3 168702040#4 168702039#1 32999434#0 201089423#0 201089423#2 32124744 32124743 285716192#0 285716192#0.83 201963535 104010354 -164051413 -653473569#5"/>
    </vehicle>
    <vehicle id="1289" depart="57636.35" departLane="free" departSpeed="max" fromTaz="taz_0" toTaz="taz_2">
        <route edges="653473569#5 164051413 104010475#0 104012170 -32124745 -32124743 -32124744 -201089423#2 -201089423#1 -32999434#1 32999110#0 402600768#0 402600768#1 51857517#0 51857517#0.33 51857517#1 51857518#1 32978638#0"/>
    </vehicle>
    <vehicle id="198" depart="57636.86" departLane="free" departSpeed="max" fromTaz="taz_0" toTaz="taz_0">
        <route edges="653473569#5 164051413 124812857#0 201956819#0 201956810"/>
    </vehicle>
    <vehicle id="2367" depart="57637.22" departLane="free" departSpeed="max" fromTaz="taz_1" toTaz="taz_2">
        <route edges="266565295#5 32999435 32124637#0 32124637#1 168702040#1 168702040#2 168702040#3 168702040#4 -315358253#2 -315358253#1"/>
    </vehicle>
    <vehicle id="2977" depart="57637.59" departLane="free" departSpeed="max" fromTaz="taz_2" toTaz="taz_0">
        <route edges="-32978638#0 32021112#0 168702040#1 168702040#2 168702040#3 168702040#4 168702039#1 32999434#0 201089423#0 201089423#2 32124744 32124743 285716192#0 285716192#0.83 201963535 104010354 124812857#0 201956811#0"/>
    </vehicle>
    <vehicle id="526" depart="57637.70" departLane="free" departSpeed="max" fromTaz="taz_0" toTaz="taz_1">
        <route edges="653473569#5 164051413 104010475#0 104012170 -32124745 -32124743 -32124744 -201089423#2 -201089423#1 24693977#0 24693977#1"/>
    </vehicle>
    <vehicle id="142" depart="57639.03" departLane="free" departSpeed="max" fromTaz="taz_0" toTaz="taz_0">
        <route edges="124812856#0 124812856#1 201956821#0 201956821#1.68 201963537#1 -164051413 -653473569#5"/>
    </vehicle>
    <vehicle id="3369" depart="57642.24" departLane="free" departSpeed="max" fromTaz="taz_2" toTaz="taz_1">
        <route edges="266565295#5 32999435 32124637#0 32124637#1 168702040#1 168702040#2 168702040#3 168702040#4 -315358253#2 -315358253#1"/>
    </vehicle>
    <vehicle id="3623" depart="57642.31" departLane="free" departSpeed="max" fromTaz="taz_2" toTaz="taz_2">
        <route edges="315358253#1 315358253#2 402600768#0 402600768#1 51857517#0 51857517#0.33 51857517#1 51857518#1 32978638#0"/>
    </vehicle>
    <vehicle id="3681" depart="57642.53" departLane="free" departSpeed="max" fromTaz="taz_2" toTaz="taz_2">
        <route edges="266565295#5 32999435 32124637#0 32124637#1 168702040#1 168702040#2 168702040#3 168702040#4 -315358253#2 -315358253#1"/>
    </vehicle>
    <vehicle id="1415" depart="57644.99" departLane="free" departSpeed="max" fromTaz="taz_1" toTaz="taz_0">
        <route edges="315358253#1 315358253#2 168702039#1 32999434#0 201089423#0 201089423#2 32124744 32124743 285716192#0 285716192#0.83 201963535 104010354 -164051413 -653473569#5"/>
    </vehicle>
    <vehicle id="3765" depart="57646.80" departLane="free" departSpeed="max" fromTaz="taz_2" toTaz="taz_2">
        <route edges="266565295#5 32999435 32124637#0 32124637#1 51857518#1 32978638#0"/>
    </vehicle>
    <vehicle id="2856" depart="57646.85" departLane="free" departSpeed="max" fromTaz="taz_2" toTaz="taz_0">
        <route edges="315358253#1 315358253#2 168702039#1 32999434#0 201089423#0 201089423#2 32124744 32124743 285716192#0 285716192#0.83 201963535 104010354 124812857#0 201956819#0 201956810"/>
    </vehicle>
    <vehicle id="571" depart="57646.90" departLane="free" departSpeed="max" fromTaz="taz_0" toTaz="taz_1">
        <route edges="124812856#0 124812856#1 201956821#0 201956821#1.68 201963537#1 104010475#0 104012170 -32124745 -32124743 -32124744 -201089423#2 -201089423#1 -32999434#1 32999110#0 -315358253#2 -315358253#1"/>
    </vehicle>
    <vehicle id="3655" depart="57647.47" departLane="free" departSpeed="max" fromTaz="taz_2" toTaz="taz_2">
        <route edges="266565295#5 32999435 32124637#0 32124637#1 51857518#1 32978638#0"/>
    </vehicle>
    <vehicle id="772" depart="57647.95" departLane="free" departSpeed="max" fromTaz="taz_0" toTaz="taz_1">
        <route edges="10425609#0 10425609#1 201963537#1 104010475#0 104012170 104010460#1 202070434#0 202070434#2"/>
    </vehicle>
    <vehicle id="1244" depart="57649.05" departLane="free" departSpeed="max" fromTaz="taz_0" toTaz="taz_2">
        <route edges="10425609#0 10425609#1 201963537#1 104010475#0 104012170 -32124745 -32124743 -32124744 -201089423#2 -201089423#1 -32999434#1 32999110#0 402600768#0 402600768#1 51857517#0 51857517#0.33 51857517#1 51857516#1 -266565295#5"/>
    </vehicle>
    <vehicle id="2385" depart="57649.06" departLane="free" departSpeed="max" fromTaz="taz_1" toTaz="taz_2">
        <route edges="24599188#0.94 172488482#0 -32124744 -201089423#2 -201089423#1 -32999434#1 32999110#0 402600768#0 402600768#1 51857517#0 51857517#0.33 51857517#1 51857516#1 -266565295#5"/>
    </vehicle>
    <vehicle id="2341" depart="57649.22" departLane="free" departSpeed="max" fromTaz="taz_1" toTaz="taz_2">
        <route edges="27920078#0 27920078#1 -32124745 -32124743 -32124744 -201089423#2 -201089423#1 -32999434#1 32999110#0 402600768#0 402600768#1 51857517#0 51857517#0.33 51857517#1 51857518#1 32978638#0"/>
    </vehicle>
    <vehicle id="2860" depart="57649.86" departLane="free" departSpeed="max" fromTaz="taz_2" toTaz="taz_0">
        <route edges="266565295#5 32999435 32124637#0 32124637#1 168702040#1 168702040#2 168702040#3 168702040#4 168702039#1 32999434#0 201089423#0 201089423#2 32124744 32124743 285716192#0 285716192#0.83 201963535 104010354 124812857#0 201956819#0 201956820"/>
    </vehicle>
    <vehicle id="4032" depart="57650.70" departLane="free" departSpeed="max" fromTaz="taz_2" toTaz="taz_2">
        <route edges="-32978638#0 32021112#0 51857516#1 -266565295#5"/>
    </vehicle>
    <vehicle id="1445" depart="57651.33" departLane="free" departSpeed="max" fromTaz="taz_1" toTaz="taz_0">
        <route edges="27920078#0 27920078#1 201963535 104010354 124812857#0 201956819#0 201956810"/>
    </vehicle>
    <vehicle id="1676" depart="57653.94" departLane="free" departSpeed="max" fromTaz="taz_1" toTaz="taz_0">
        <route edges="266565295#5 32999435 32124637#0 32124637#1 168702040#1 168702040#2 168702040#3 168702040#4 168702039#1 32999434#0 201089423#0 201089423#2 32124744 32124743 285716192#0 285716192#0.83 201963535 104010354 124812857#0 201956819#0 201956820"/>
    </vehicle>
    <vehicle id="543" depart="57654.47" departLane="free" departSpeed="max" fromTaz="taz_0" toTaz="taz_1">
        <route edges="653473569#5 164051413 104010475#0 104012170 -32124745 172488483#0 -83304175#2"/>
    </vehicle>
    <vehicle id="1948" depart="57655.13" departLane="free" departSpeed="max" fromTaz="taz_1" toTaz="taz_1">
        <route edges="266565295#5 32999435 32124637#0 32124637#1 168702040#1 168702040#2 168702040#3 168702040#4 168702039#1 32999434#0 201089423#0 201089423#2 32124744 32124743 285716192#0 285716192#0.83 104010439#1 202070434#0 202070434#2"/>
    </vehicle>
    <vehicle id="1327" depart="57655.39" departLane="free" departSpeed="max" fromTaz="taz_0" toTaz="taz_2">
        <route edges="124812856#0 124812856#1 201956821#0 201956821#1.68 201963537#1 104010475#0 104012170 -32124745 -32124743 -32124744 -201089423#2 -201089423#1 -32999434#1 32999110#0 -315358253#2 -315358253#1"/>
    </vehicle>
    <vehicle id="5" depart="57655.65" departLane="free" departSpeed="max" fromTaz="taz_0" toTaz="taz_0">
        <route edges="-173169611#0 201956821#0 201956821#1.68 201956811#0"/>
    </vehicle>
    <vehicle id="2790" depart="57655.81" departLane="free" departSpeed="max" fromTaz="taz_2" toTaz="taz_0">
        <route edges="-32978638#0 32021112#0 168702040#1 168702040#2 168702040#3 168702040#4 168702039#1 32999434#0 201089423#0 201089423#2 32124744 32124743 285716192#0 285716192#0.83 201963535 104010354 -164051413 -653473569#5"/>
    </vehicle>
    <vehicle id="3391" depart="57656.04" departLane="free" departSpeed="max" fromTaz="taz_2" toTaz="taz_1">
        <route edges="-32978638#0 32021112#0 168702040#1 168702040#2 168702040#3 168702040#4 168702039#1 32999434#0 201089423#0 201089423#2 32124744 32124743 285716192#0 285716192#0.83 104010439#1 202070434#0 202070434#2"/>
    </vehicle>
    <vehicle id="1870" depart="57656.27" departLane="free" departSpeed="max" fromTaz="taz_1" toTaz="taz_1">
        <route edges="-32978638#0 32021112#0 168702040#1 168702040#2 168702040#3 168702040#4 168702039#1 32999434#0 201089423#0 201089423#2 32124744 32124743 285716192#0 285716192#0.83 104010439#1 202070434#0 202070434#2"/>
    </vehicle>
    <vehicle id="2731" depart="57658.71" departLane="free" departSpeed="max" fromTaz="taz_2" toTaz="taz_0">
        <route edges="-32978638#0 32021112#0 168702040#1 168702040#2 168702040#3 168702040#4 168702039#1 32999434#0 201089423#0 201089423#2 32124744 32124743 285716192#0 285716192#0.83 201963535 104010354 124812857#0 201956819#0 201956810"/>
    </vehicle>
    <vehicle id="1051" depart="57659.07" departLane="free" departSpeed="max" fromTaz="taz_0" toTaz="taz_2">
        <route edges="124812856#0 124812856#1 201956821#0 201956821#1.68 201963537#1 104010475#0 104012170 -32124745 -32124743 -32124744 -201089423#2 -201089423#1 -32999434#1 32999110#0 -315358253#2 -315358253#1"/>
    </vehicle>
    <vehicle id="1429" depart="57659.85" departLane="free" departSpeed="max" fromTaz="taz_1" toTaz="taz_0">
        <route edges="-32978638#0 32021112#0 168702040#1 168702040#2 168702040#3 168702040#4 168702039#1 32999434#0 201089423#0 201089423#2 32124744 32124743 285716192#0 285716192#0.83 201963535 104010354 124812857#0 201956811#0"/>
    </vehicle>
    <vehicle id="3595" depart="57660.66" departLane="free" departSpeed="max" fromTaz="taz_2" toTaz="taz_1">
        <route edges="315358253#1 315358253#2 168702039#1 32999434#0 201089423#0 201089423#2 32124744 32124743 285716192#0 285716192#0.83 104010439#1 202070434#0 202070434#2"/>
    </vehicle>
    <vehicle id="1154" depart="57663.18" departLane="free" departSpeed="max" fromTaz="taz_0" toTaz="taz_2">
        <route edges="124812856#0 124812856#1 201956821#0 201956821#1.68 201963537#1 104010475#0 104012170 -32124745 -32124743 -32124744 -201089423#2 -201089423#1 -32999434#1 32999110#0 -315358253#2 -315358253#1"/>
    </vehicle>
    <vehicle id="2182" depart="57664.13" departLane="free" departSpeed="max" fromTaz="taz_1" toTaz="taz_2">
        <route edges="-24693977#1 -24693977#0 -32999434#1 32999110#0 402600768#0 402600768#1 51857517#0 51857517#0.33 51857517#1 51857516#1 -266565295#5"/>
    </vehicle>
    <vehicle id="1869" depart="57665.23" departLane="free" departSpeed="max" fromTaz="taz_1" toTaz="taz_1">
        <route edges="27920078#0 118362731 202070434#2"/>
    </vehicle>
    <vehicle id="1556" depart="57666.73" departLane="free" departSpeed="max" fromTaz="taz_1" toTaz="taz_0">
        <route edges="-24693977#1 -24693977#0 201089423#0 201089423#2 32124744 32124743 285716192#0 285716192#0.83 201963535 104010354 -164051413 -653473569#5"/>
    </vehicle>
    <vehicle id="3950" depart="57667.39" departLane="free" departSpeed="max" fromTaz="taz_2" toTaz="taz_2">
        <route edges="315358253#1 315358253#2 402600768#0 402600768#1 51857517#0 51857517#0.33 51857517#1 51857518#1 32978638#0"/>
    </vehicle>
    <vehicle id="3999" depart="57670.47" departLane="free" departSpeed="max" fromTaz="taz_2" toTaz="taz_2">
        <route edges="-32978638#0 32021112#0 51857516#1 -266565295#5"/>
    </vehicle>
    <vehicle id="1827" depart="57670.69" departLane="free" departSpeed="max" fromTaz="taz_1" toTaz="taz_1">
        <route edges="27920078#0 27920078#1 -32124745 -32124743 -32124744 -201089423#2 -201089423#1 -32999434#1 32999110#0 -315358253#2 -315358253#1"/>
    </vehicle>
    <vehicle id="597" depart="57670.72" departLane="free" departSpeed="max" fromTaz="taz_0" toTaz="taz_1">
        <route edges="124812856#0 124812856#1 201956821#0 201956821#1.68 201963537#1 104010475#0 104012170 -32124745 -32124743 -32124744 -201089423#2 -201089423#1 -32999434#1 32999110#0 -315358253#2 -315358253#1"/>
    </vehicle>
    <vehicle id="1076" depart="57672.86" departLane="free" departSpeed="max" fromTaz="taz_0" toTaz="taz_2">
        <route edges="124812856#0 124812856#1 201956821#0 201956821#1.68 201963537#1 104010475#0 104012170 -32124745 -32124743 -32124744 -201089423#2 -201089423#1 -32999434#1 32999110#0 402600768#0 402600768#1 51857517#0 51857517#0.33 51857517#1 51857516#1 -266565295#5"/>
    </vehicle>
    <vehicle id="587" depart="57673.98" departLane="free" departSpeed="max" fromTaz="taz_0" toTaz="taz_1">
        <route edges="10425609#0 10425609#1 201963537#1 104010475#0 104012170 -32124745 -32124743 -32124744 -201089423#2 -201089423#1 24693977#0 24693977#1"/>
    </vehicle>
    <vehicle id="4068" depart="57674.05" departLane="free" departSpeed="max" fromTaz="taz_2" toTaz="taz_2">
        <route edges="266565295#5 32999435 32124637#0 32124637#1 168702040#1 168702040#2 168702040#3 168702040#4 -315358253#2 -315358253#1"/>
    </vehicle>
    <vehicle id="3028" depart="57674.14" departLane="free" departSpeed="max" fromTaz="taz_2" toTaz="taz_0">
        <route edges="266565295#5 32999435 32124637#0 32124637#1 168702040#1 168702040#2 168702040#3 168702040#4 168702039#1 32999434#0 201089423#0 201089423#2 32124744 32124743 285716192#0 285716192#0.83 201963535 104010354 -164051413 -653473569#5"/>
    </vehicle>
    <vehicle id="2544" depart="57674.54" departLane="free" departSpeed="max" fromTaz="taz_1" toTaz="taz_2">
        <route edges="24599188#0.94 172488482#0 -32124744 -201089423#2 -201089423#1 -32999434#1 32999110#0 -315358253#2 -315358253#1"/>
    </vehicle>
    <vehicle id="711" depart="57676.05" departLane="free" departSpeed="max" fromTaz="taz_0" toTaz="taz_1">
        <route edges="-173169611#0 201956821#0 201956821#1.68 201963537#1 104010475#0 104012170 104010460#1 202070434#0 202070434#2"/>
    </vehicle>
    <vehicle id="551" depart="57676.76" departLane="free" departSpeed="max" fromTaz="taz_0" toTaz="taz_1">
        <route edges="-173169611#0 201956821#0 201956821#1.68 201963537#1 104010475#0 104012170 -32124745 -32124743 -32124744 -201089423#2 -201089423#1 -32999434#1 32999110#0 402600768#0 402600768#1 51857517#0 51857517#0.33 51857517#1 51857518#1 32978638#0"/>
    </vehicle>
    <vehicle id="2368" depart="57677.29" departLane="free" departSpeed="max" fromTaz="taz_1" toTaz="taz_2">
        <route edges="27920078#0 27920078#1 -32124745 -32124743 -32124744 -201089423#2 -201089423#1 -32999434#1 32999110#0 -315358253#2 -315358253#1"/>
    </vehicle>
    <vehicle id="418" depart="57677.89" departLane="free" departSpeed="max" fromTaz="taz_0" toTaz="taz_1">
        <route edges="653473569#5 164051413 104010475#0 104012170 -32124745 -32124743 -32124744 -201089423#2 -201089423#1 -32999434#1 32999110#0 -315358253#2 -315358253#1"/>
    </vehicle>
    <vehicle id="2622" depart="57680.18" departLane="free" departSpeed="max" fromTaz="taz_2" toTaz="taz_0">
        <route edges="-32978638#0 32021112#0 168702040#1 168702040#2 168702040#3 168702040#4 168702039#1 32999434#0 201089423#0 201089423#2 32124744 32124743 285716192#0 285716192#0.83 201963535 104010354 124812857#0 201956819#0 201956810"/>
    </vehicle>
    <vehicle id="111" depart="57681.63" departLane="free" departSpeed="max" fromTaz="taz_0" toTaz="taz_0">
        <route edges="10425609#0 10425609#1 201956819#0 201956820"/>
    </vehicle>
    <vehicle id="3414" depart="57682.31" departLane="free" departSpeed="max" fromTaz="taz_2" toTaz="taz_1">
        <route edges="315358253#1 315358253#2 402600768#0 402600768#1 51857517#0 51857517#0.33 51857517#1 51857516#1 -266565295#5"/>
    </vehicle>
    <vehicle id="3154" depart="57683.37" departLane="free" departSpeed="max" fromTaz="taz_2" toTaz="taz_1">
        <route edges="-32978638#0 32021112#0 168702040#1 168702040#2 168702040#3 168702040#4 168702039#1 32999434#0 201089423#0 201089423#2 32124744 32124743 285716192#0 285716192#0.83 104010439#1 202070434#0 202070434#2"/>
    </vehicle>
    <vehicle id="2935" depart="57685.77" departLane="free" departSpeed="max" fromTaz="taz_2" toTaz="taz_0">
        <route edges="266565295#5 32999435 32124637#0 32124637#1 168702040#1 168702040#2 168702040#3 168702040#4 168702039#1 32999434#0 201089423#0 201089423#2 32124744 32124743 285716192#0 285716192#0.83 201963535 104010354 -164051413 -653473569#5"/>
    </vehicle>
    <vehicle id="829" depart="57688.88" departLane="free" departSpeed="max" fromTaz="taz_0" toTaz="taz_1">
        <route edges="10425609#0 10425609#1 201963537#1 104010475#0 104012170 104010460#1 202070434#0 202070434#2"/>
    </vehicle>
    <vehicle id="1006" depart="57689.14" departLane="free" departSpeed="max" fromTaz="taz_0" toTaz="taz_2">
        <route edges="124812856#0 124812856#1 201956821#0 201956821#1.68 201963537#1 104010475#0 104012170 -32124745 -32124743 -32124744 -201089423#2 -201089423#1 -32999434#1 32999110#0 402600768#0 402600768#1 51857517#0 51857517#0.33 51857517#1 51857518#1 32978638#0"/>
    </vehicle>
    <vehicle id="907" depart="57692.51" departLane="free" departSpeed="max" fromTaz="taz_0" toTaz="taz_2">
        <route edges="-173169611#0 201956821#0 201956821#1.68 201963537#1 104010475#0 104012170 -32124745 -32124743 -32124744 -201089423#2 -201089423#1 -32999434#1 32999110#0 -315358253#2 -315358253#1"/>
    </vehicle>
    <vehicle id="3314" depart="57692.85" departLane="free" departSpeed="max" fromTaz="taz_2" toTaz="taz_1">
        <route edges="315358253#1 315358253#2 402600768#0 402600768#1 51857517#0 51857517#0.33 51857517#1 51857516#1 -266565295#5"/>
    </vehicle>
    <vehicle id="1366" depart="57694.16" departLane="free" departSpeed="max" fromTaz="taz_1" toTaz="taz_0">
        <route edges="27920078#0 27920078#1 201963535 104010354 124812857#0 201956819#0 201956810"/>
    </vehicle>
    <vehicle id="2683" depart="57694.22" departLane="free" departSpeed="max" fromTaz="taz_2" toTaz="taz_0">
        <route edges="315358253#1 315358253#2 168702039#1 32999434#0 201089423#0 201089423#2 32124744 32124743 285716192#0 285716192#0.83 201963535 104010354 124812857#0 201956819#0 201956820"/>
    </vehicle>
    <vehicle id="3922" depart="57695.45" departLane="free" departSpeed="max" fromTaz="taz_2" toTaz="taz_2">
        <route edges="315358253#1 315358253#2 402600768#0 402600768#1 51857517#0 51857517#0.33 51857517#1 51857516#1 -266565295#5"/>
    </vehicle>
    <vehicle id="3726" depart="57695.74" departLane="free" departSpeed="max" fromTaz="taz_2" toTaz="taz_2">
        <route edges="-32978638#0 32021112#0 51857516#1 -266565295#5"/>
    </vehicle>
    <vehicle id="915" depart="57695.90" departLane="free" departSpeed="max" fromTaz="taz_0" toTaz="taz_2">
        <route edges="653473569#5 164051413 104010475#0 104012170 -32124745 -32124743 -32124744 -201089423#2 -201089423#1 -32999434#1 32999110#0 402600768#0 402600768#1 51857517#0 51857517#0.33 51857517#1 51857516#1 -266565295#5"/>
    </vehicle>
    <vehicle id="2984" depart="57697.49" departLane="free" departSpeed="max" fromTaz="taz_2" toTaz="taz_0">
        <route edges="-32978638#0 32021112#0 168702040#1 168702040#2 168702040#3 168702040#4 168702039#1 32999434#0 201089423#0 201089423#2 32124744 32124743 285716192#0 285716192#0.83 201963535 104010354 -164051413 -653473569#5"/>
    </vehicle>
    <vehicle id="3716" depart="57698.40" departLane="free" departSpeed="max" fromTaz="taz_2" toTaz="taz_2">
        <route edges="266565295#5 32999435 32124637#0 32124637#1 51857518#1 32978638#0"/>
    </vehicle>
    <vehicle id="1383" depart="57700.27" departLane="free" departSpeed="max" fromTaz="taz_1" toTaz="taz_0">
        <route edges="-32978638#0 32021112#0 168702040#1 168702040#2 168702040#3 168702040#4 168702039#1 32999434#0 201089423#0 201089423#2 32124744 32124743 285716192#0 285716192#0.83 201963535 104010354 124812857#0 201956819#0 201956820"/>
    </vehicle>
    <vehicle id="223" depart="57701.43" departLane="free" departSpeed="max" fromTaz="taz_0" toTaz="taz_0">
        <route edges="653473569#5 164051413 124812857#0 201956811#0"/>
    </vehicle>