<?xml version="1.0" encoding="UTF-8"?>

<!-- generated on 2023-05-04 14:55:58 by Eclipse SUMO duarouter Version 1.16.0
<configuration xmlns:xsi="http://www.w3.org/2001/XMLSchema-instance" xsi:noNamespaceSchemaLocation="http://sumo.dlr.de/xsd/duarouterConfiguration.xsd">

    <input>
        <net-file value="ingolstadt7.net.xml"/>
        <route-files value="ind7-syn2.trips.xml"/>
    </input>

    <output>
        <output-file value="ind7-syn2.rou.xml"/>
    </output>

    <processing>
        <repair value="true"/>
    </processing>

    <report>
        <ignore-errors value="true"/>
    </report>

</configuration>
-->

<routes xmlns:xsi="http://www.w3.org/2001/XMLSchema-instance" xsi:noNamespaceSchemaLocation="http://sumo.dlr.de/xsd/routes_file.xsd">
    <vehicle id="63" depart="57600.79" departLane="free" departSpeed="max" fromTaz="taz_0" toTaz="taz_0">
        <route edges="-173169611#0 201956821#0 201956821#1.68 201956811#0"/>
    </vehicle>
    <vehicle id="283" depart="57602.83" departLane="free" departSpeed="max" fromTaz="taz_0" toTaz="taz_1">
        <route edges="124812856#0 124812856#1 201956821#0 201956821#1.68 201963537#1 104010475#0 104012170 -32124745 -32124743 -32124744 -201089423#2 -201089423#1 -32999434#1 32999110#0 -315358253#2 -315358253#1"/>
    </vehicle>
    <vehicle id="519" depart="57604.77" departLane="free" departSpeed="max" fromTaz="taz_0" toTaz="taz_1">
        <route edges="-173169611#0 201956821#0 201956821#1.68 201963537#1 104010475#0 104012170 -32124745 -32124743 -32124744 -201089423#2 -201089423#1 -32999434#1 32999110#0 402600768#0 402600768#1 51857517#0 51857517#0.33 51857517#1 51857518#1 32978638#0"/>
    </vehicle>
    <vehicle id="245" depart="57611.12" departLane="free" departSpeed="max" fromTaz="taz_0" toTaz="taz_1">
        <route edges="653473569#5 164051413 104010475#0 104012170 -32124745 -32124743 -32124744 -201089423#2 -201089423#1 24693977#0 24693977#1"/>
    </vehicle>
    <vehicle id="2650" depart="57611.33" departLane="free" departSpeed="max" fromTaz="taz_2" toTaz="taz_2">
        <route edges="266565295#5 32999435 32124637#0 32124637#1 51857518#1 32978638#0"/>
    </vehicle>
    <vehicle id="2375" depart="57611.57" departLane="free" departSpeed="max" fromTaz="taz_2" toTaz="taz_1">
        <route edges="315358253#1 315358253#2 168702039#1 32999434#0 201089423#0 201089423#2 32124744 32124743 285716192#0 285716192#0.83 104010439#1 202070434#0 202070434#2"/>
    </vehicle>
    <vehicle id="1579" depart="57614.07" departLane="free" departSpeed="max" fromTaz="taz_1" toTaz="taz_2">
        <route edges="-32978638#0 32021112#0 51857516#1 -266565295#5"/>
    </vehicle>
    <vehicle id="1349" depart="57616.08" departLane="free" departSpeed="max" fromTaz="taz_1" toTaz="taz_1">
        <route edges="-32978638#0 32021112#0 51857516#1 -266565295#5"/>
    </vehicle>
    <vehicle id="88" depart="57616.72" departLane="free" departSpeed="max" fromTaz="taz_0" toTaz="taz_0">
        <route edges="653473569#5 164051413 124812857#0 201956819#0 201956820"/>
    </vehicle>
    <vehicle id="748" depart="57618.97" departLane="free" departSpeed="max" fromTaz="taz_0" toTaz="taz_2">
        <route edges="124812856#0 124812856#1 201956821#0 201956821#1.68 201963537#1 104010475#0 104012170 -32124745 -32124743 -32124744 -201089423#2 -201089423#1 -32999434#1 32999110#0 -315358253#2 -315358253#1"/>
    </vehicle>
    <vehicle id="412" depart="57619.61" departLane="free" departSpeed="max" fromTaz="taz_0" toTaz="taz_1">
        <route edges="124812856#0 124812856#1 201956821#0 201956821#1.68 201963537#1 104010475#0 104012170 -32124745 -32124743 -32124744 -201089423#2 -201089423#1 -32999434#1 32999110#0 402600768#0 402600768#1 51857517#0 51857517#0.33 51857517#1 51857516#1 -266565295#5"/>
    </vehicle>
    <vehicle id="1597" depart="57621.76" departLane="free" departSpeed="max" fromTaz="taz_1" toTaz="taz_2">
        <route edges="24599188#0.94 172488482#0 -32124744 -201089423#2 -201089423#1 -32999434#1 32999110#0 402600768#0 402600768#1 51857517#0 51857517#0.33 51857517#1 51857516#1 -266565295#5"/>
    </vehicle>
    <vehicle id="1395" depart="57622.82" departLane="free" departSpeed="max" fromTaz="taz_1" toTaz="taz_1">
        <route edges="-32978638#0 32021112#0 168702040#1 168702040#2 168702040#3 168702040#4 168702039#1 32999434#0 201089423#0 201089423#2 32124744 32124743 285716192#0 285716192#0.83 104010439#1 202070434#0 202070434#2"/>
    </vehicle>
    <vehicle id="391" depart="57623.05" departLane="free" departSpeed="max" fromTaz="taz_0" toTaz="taz_1">
        <route edges="124812856#0 124812856#1 201956821#0 201956821#1.68 201963537#1 104010475#0 104012170 -32124745 -32124743 -32124744 -201089423#2 -201089423#1 -32999434#1 32999110#0 402600768#0 402600768#1 51857517#0 51857517#0.33 51857517#1 51857516#1 -266565295#5"/>
    </vehicle>
    <vehicle id="1142" depart="57623.89" departLane="free" departSpeed="max" fromTaz="taz_1" toTaz="taz_0">
        <route edges="-24693977#1 -24693977#0 201089423#0 201089423#2 32124744 32124743 285716192#0 285716192#0.83 201963535 104010354 -164051413 -653473569#5"/>
    </vehicle>
    <vehicle id="1385" depart="57632.14" departLane="free" departSpeed="max" fromTaz="taz_1" toTaz="taz_1">
        <route edges="315358253#1 315358253#2 168702039#1 32999434#0 24693977#0 24693977#1"/>
    </vehicle>
    <vehicle id="1750" depart="57635.00" departLane="free" departSpeed="max" fromTaz="taz_1" toTaz="taz_2">
        <route edges="-24693977#1 -24693977#0 -32999434#1 32999110#0 402600768#0 402600768#1 51857517#0 51857517#0.33 51857517#1 51857518#1 32978638#0"/>
    </vehicle>
    <vehicle id="1287" depart="57636.35" departLane="free" departSpeed="max" fromTaz="taz_1" toTaz="taz_0">
        <route edges="315358253#1 315358253#2 168702039#1 32999434#0 201089423#0 201089423#2 32124744 32124743 285716192#0 285716192#0.83 201963535 104010354 124812857#0 201956819#0 201956820"/>
    </vehicle>
    <vehicle id="198" depart="57636.86" departLane="free" departSpeed="max" fromTaz="taz_0" toTaz="taz_0">
        <route edges="653473569#5 164051413 124812857#0 201956819#0 201956810"/>
    </vehicle>
    <vehicle id="526" depart="57637.70" departLane="free" departSpeed="max" fromTaz="taz_0" toTaz="taz_1">
        <route edges="653473569#5 164051413 104010475#0 104012170 -32124745 -32124743 -32124744 -201089423#2 -201089423#1 24693977#0 24693977#1"/>
    </vehicle>
    <vehicle id="142" depart="57639.03" departLane="free" departSpeed="max" fromTaz="taz_0" toTaz="taz_0">
        <route edges="124812856#0 124812856#1 201956821#0 201956821#1.68 201963537#1 -164051413 -653473569#5"/>
    </vehicle>
    <vehicle id="1414" depart="57644.99" departLane="free" departSpeed="max" fromTaz="taz_1" toTaz="taz_1">
        <route edges="315358253#1 315358253#2 402600768#0 402600768#1 51857517#0 51857517#0.33 51857517#1 51857516#1 -266565295#5"/>
    </vehicle>
    <vehicle id="2855" depart="57646.85" departLane="free" departSpeed="max" fromTaz="taz_2" toTaz="taz_2">
        <route edges="315358253#1 315358253#2 402600768#0 402600768#1 51857517#0 51857517#0.33 51857517#1 51857516#1 -266565295#5"/>
    </vehicle>
    <vehicle id="571" depart="57646.90" departLane="free" departSpeed="max" fromTaz="taz_0" toTaz="taz_1">
        <route edges="124812856#0 124812856#1 201956821#0 201956821#1.68 201963537#1 104010475#0 104012170 -32124745 -32124743 -32124744 -201089423#2 -201089423#1 -32999434#1 32999110#0 -315358253#2 -315358253#1"/>
    </vehicle>
    <vehicle id="771" depart="57647.95" departLane="free" departSpeed="max" fromTaz="taz_0" toTaz="taz_2">
        <route edges="10425609#0 10425609#1 201963537#1 104010475#0 104012170 -32124745 -32124743 -32124744 -201089423#2 -201089423#1 -32999434#1 32999110#0 402600768#0 402600768#1 51857517#0 51857517#0.33 51857517#1 51857518#1 32978638#0"/>
    </vehicle>
    <vehicle id="1242" depart="57649.05" departLane="free" departSpeed="max" fromTaz="taz_1" toTaz="taz_0">
        <route edges="-32978638#0 32021112#0 168702040#1 168702040#2 168702040#3 168702040#4 168702039#1 32999434#0 201089423#0 201089423#2 32124744 32124743 285716192#0 285716192#0.83 201963535 104010354 -164051413 -653473569#5"/>
    </vehicle>
    <vehicle id="2384" depart="57649.06" departLane="free" departSpeed="max" fromTaz="taz_2" toTaz="taz_1">
        <route edges="-32978638#0 32021112#0 168702040#1 168702040#2 168702040#3 168702040#4 -315358253#2 -315358253#1"/>
    </vehicle>
    <vehicle id="2340" depart="57649.22" departLane="free" departSpeed="max" fromTaz="taz_2" toTaz="taz_1">
        <route edges="315358253#1 315358253#2 402600768#0 402600768#1 51857517#0 51857517#0.33 51857517#1 51857518#1 32978638#0"/>
    </vehicle>
    <vehicle id="2859" depart="57649.86" departLane="free" departSpeed="max" fromTaz="taz_2" toTaz="taz_2">
        <route edges="266565295#5 32999435 32124637#0 32124637#1 51857518#1 32978638#0"/>
    </vehicle>
    <vehicle id="1444" depart="57651.33" departLane="free" departSpeed="max" fromTaz="taz_1" toTaz="taz_1">
        <route edges="27920078#0 27920078#1 -32124745 -32124743 -32124744 -201089423#2 -201089423#1 -32999434#1 32999110#0 -315358253#2 -315358253#1"/>
    </vehicle>
    <vehicle id="1675" depart="57653.94" departLane="free" departSpeed="max" fromTaz="taz_1" toTaz="taz_2">
        <route edges="266565295#5 32999435 32124637#0 32124637#1 51857518#1 32978638#0"/>
    </vehicle>
    <vehicle id="543" depart="57654.47" departLane="free" departSpeed="max" fromTaz="taz_0" toTaz="taz_1">
        <route edges="653473569#5 164051413 104010475#0 104012170 -32124745 172488483#0 -83304175#2"/>
    </vehicle>
    <vehicle id="1948" depart="57655.13" departLane="free" departSpeed="max" fromTaz="taz_2" toTaz="taz_0">
        <route edges="266565295#5 32999435 32124637#0 32124637#1 168702040#1 168702040#2 168702040#3 168702040#4 168702039#1 32999434#0 201089423#0 201089423#2 32124744 32124743 285716192#0 285716192#0.83 201963535 104010354 124812857#0 201956811#0"/>
    </vehicle>
    <vehicle id="5" depart="57655.65" departLane="free" departSpeed="max" fromTaz="taz_0" toTaz="taz_0">
        <route edges="-173169611#0 201956821#0 201956821#1.68 201956811#0"/>
    </vehicle>
    <vehicle id="2789" depart="57655.81" departLane="free" departSpeed="max" fromTaz="taz_2" toTaz="taz_2">
        <route edges="-32978638#0 32021112#0 51857516#1 -266565295#5"/>
    </vehicle>
    <vehicle id="1870" depart="57656.27" departLane="free" departSpeed="max" fromTaz="taz_2" toTaz="taz_0">
        <route edges="-32978638#0 32021112#0 168702040#1 168702040#2 168702040#3 168702040#4 168702039#1 32999434#0 201089423#0 201089423#2 32124744 32124743 285716192#0 285716192#0.83 201963535 104010354 124812857#0 201956819#0 201956820"/>
    </vehicle>
    <vehicle id="957" depart="57657.01" departLane="free" departSpeed="max" fromTaz="taz_1" toTaz="taz_0">
        <route edges="27920078#0 27920078#1 201963535 104010354 124812857#0 201956811#0"/>
    </vehicle>
    <vehicle id="2730" depart="57658.71" departLane="free" departSpeed="max" fromTaz="taz_2" toTaz="taz_2">
        <route edges="-32978638#0 32021112#0 51857516#1 -266565295#5"/>
    </vehicle>
    <vehicle id="1049" depart="57659.07" departLane="free" departSpeed="max" fromTaz="taz_1" toTaz="taz_0">
        <route edges="27920078#0 27920078#1 201963535 104010354 124812857#0 201956811#0"/>
    </vehicle>
    <vehicle id="1428" depart="57659.85" departLane="free" departSpeed="max" fromTaz="taz_1" toTaz="taz_1">
        <route edges="-32978638#0 32021112#0 168702040#1 168702040#2 168702040#3 168702040#4 168702039#1 32999434#0 201089423#0 201089423#2 32124744 32124743 285716192#0 285716192#0.83 104010439#1 202070434#0 202070434#2"/>
    </vehicle>
    <vehicle id="951" depart="57660.19" departLane="free" departSpeed="max" fromTaz="taz_1" toTaz="taz_0">
        <route edges="315358253#1 315358253#2 168702039#1 32999434#0 201089423#0 201089423#2 32124744 32124743 285716192#0 285716192#0.83 201963535 104010354 124812857#0 201956819#0 201956810"/>
    </vehicle>
    <vehicle id="1152" depart="57663.18" departLane="free" departSpeed="max" fromTaz="taz_1" toTaz="taz_0">
        <route edges="266565295#5 32999435 32124637#0 32124637#1 168702040#1 168702040#2 168702040#3 168702040#4 168702039#1 32999434#0 201089423#0 201089423#2 32124744 32124743 285716192#0 285716192#0.83 201963535 104010354 124812857#0 201956811#0"/>
    </vehicle>
    <vehicle id="2182" depart="57664.13" departLane="free" departSpeed="max" fromTaz="taz_2" toTaz="taz_0">
        <route edges="-32978638#0 32021112#0 168702040#1 168702040#2 168702040#3 168702040#4 168702039#1 32999434#0 201089423#0 201089423#2 32124744 32124743 285716192#0 285716192#0.83 201963535 104010354 124812857#0 201956819#0 201956810"/>
    </vehicle>
    <vehicle id="1869" depart="57665.23" departLane="free" departSpeed="max" fromTaz="taz_2" toTaz="taz_0">
        <route edges="315358253#1 315358253#2 168702039#1 32999434#0 201089423#0 201089423#2 32124744 32124743 285716192#0 285716192#0.83 201963535 104010354 124812857#0 201956819#0 201956820"/>
    </vehicle>
    <vehicle id="1555" depart="57666.73" departLane="free" departSpeed="max" fromTaz="taz_1" toTaz="taz_2">
        <route edges="-24693977#1 -24693977#0 -32999434#1 32999110#0 402600768#0 402600768#1 51857517#0 51857517#0.33 51857517#1 51857516#1 -266565295#5"/>
    </vehicle>
    <vehicle id="2406" depart="57666.85" departLane="free" departSpeed="max" fromTaz="taz_2" toTaz="taz_1">
        <route edges="-32978638#0 32021112#0 168702040#1 168702040#2 168702040#3 168702040#4 168702039#1 32999434#0 24693977#0 24693977#1"/>
    </vehicle>
    <vehicle id="1827" depart="57670.69" departLane="free" departSpeed="max" fromTaz="taz_2" toTaz="taz_0">
        <route edges="315358253#1 315358253#2 168702039#1 32999434#0 201089423#0 201089423#2 32124744 32124743 285716192#0 285716192#0.83 201963535 104010354 124812857#0 201956819#0 201956810"/>
    </vehicle>
    <vehicle id="597" depart="57670.72" departLane="free" departSpeed="max" fromTaz="taz_0" toTaz="taz_1">
        <route edges="124812856#0 124812856#1 201956821#0 201956821#1.68 201963537#1 104010475#0 104012170 -32124745 -32124743 -32124744 -201089423#2 -201089423#1 -32999434#1 32999110#0 -315358253#2 -315358253#1"/>
    </vehicle>
    <vehicle id="1074" depart="57672.86" departLane="free" departSpeed="max" fromTaz="taz_1" toTaz="taz_0">
        <route edges="266565295#5 32999435 32124637#0 32124637#1 168702040#1 168702040#2 168702040#3 168702040#4 168702039#1 32999434#0 201089423#0 201089423#2 32124744 32124743 285716192#0 285716192#0.83 201963535 104010354 124812857#0 201956819#0 201956810"/>
    </vehicle>
    <vehicle id="587" depart="57673.98" departLane="free" departSpeed="max" fromTaz="taz_0" toTaz="taz_1">
        <route edges="10425609#0 10425609#1 201963537#1 104010475#0 104012170 -32124745 -32124743 -32124744 -201089423#2 -201089423#1 24693977#0 24693977#1"/>
    </vehicle>
    <vehicle id="710" depart="57676.05" departLane="free" departSpeed="max" fromTaz="taz_0" toTaz="taz_2">
        <route edges="-173169611#0 201956821#0 201956821#1.68 201963537#1 104010475#0 104012170 -32124745 -32124743 -32124744 -201089423#2 -201089423#1 -32999434#1 32999110#0 402600768#0 402600768#1 51857517#0 51857517#0.33 51857517#1 51857518#1 32978638#0"/>
    </vehicle>
    <vehicle id="551" depart="57676.76" departLane="free" departSpeed="max" fromTaz="taz_0" toTaz="taz_1">
        <route edges="-173169611#0 201956821#0 201956821#1.68 201963537#1 104010475#0 104012170 -32124745 -32124743 -32124744 -201089423#2 -201089423#1 -32999434#1 32999110#0 402600768#0 402600768#1 51857517#0 51857517#0.33 51857517#1 51857518#1 32978638#0"/>
    </vehicle>
    <vehicle id="2367" depart="57677.29" departLane="free" departSpeed="max" fromTaz="taz_2" toTaz="taz_1">
        <route edges="315358253#1 315358253#2 168702039#1 32999434#0 201089423#0 201089423#2 32124744 32124743 285716192#0 285716192#0.83 104010439#1 202070434#0 202070434#2"/>
    </vehicle>
    <vehicle id="418" depart="57677.89" departLane="free" departSpeed="max" fromTaz="taz_0" toTaz="taz_1">
        <route edges="653473569#5 164051413 104010475#0 104012170 -32124745 -32124743 -32124744 -201089423#2 -201089423#1 -32999434#1 32999110#0 -315358253#2 -315358253#1"/>
    </vehicle>
    <vehicle id="2621" depart="57680.18" departLane="free" departSpeed="max" fromTaz="taz_2" toTaz="taz_2">
        <route edges="-32978638#0 32021112#0 51857516#1 -266565295#5"/>
    </vehicle>
    <vehicle id="111" depart="57681.63" departLane="free" departSpeed="max" fromTaz="taz_0" toTaz="taz_0">
        <route edges="10425609#0 10425609#1 201956819#0 201956820"/>
    </vehicle>
    <vehicle id="828" depart="57688.88" departLane="free" departSpeed="max" fromTaz="taz_0" toTaz="taz_2">
        <route edges="10425609#0 10425609#1 201963537#1 104010475#0 104012170 -32124745 -32124743 -32124744 -201089423#2 -201089423#1 -32999434#1 32999110#0 -315358253#2 -315358253#1"/>
    </vehicle>
    <vehicle id="1004" depart="57689.14" departLane="free" departSpeed="max" fromTaz="taz_1" toTaz="taz_0">
        <route edges="266565295#5 32999435 32124637#0 32124637#1 168702040#1 168702040#2 168702040#3 168702040#4 168702039#1 32999434#0 201089423#0 201089423#2 32124744 32124743 285716192#0 285716192#0.83 201963535 104010354 124812857#0 201956819#0 201956820"/>
    </vehicle>
    <vehicle id="906" depart="57692.51" departLane="free" departSpeed="max" fromTaz="taz_0" toTaz="taz_2">
        <route edges="-173169611#0 201956821#0 201956821#1.68 201963537#1 104010475#0 104012170 -32124745 -32124743 -32124744 -201089423#2 -201089423#1 -32999434#1 32999110#0 -315358253#2 -315358253#1"/>
    </vehicle>
    <vehicle id="1365" depart="57694.16" departLane="free" departSpeed="max" fromTaz="taz_1" toTaz="taz_1">
        <route edges="27920078#0 27920078#1 -32124745 -32124743 -32124744 -201089423#2 -201089423#1 -32999434#1 32999110#0 -315358253#2 -315358253#1"/>
    </vehicle>
    <vehicle id="2682" depart="57694.22" departLane="free" departSpeed="max" fromTaz="taz_2" toTaz="taz_2">
        <route edges="315358253#1 315358253#2 402600768#0 402600768#1 51857517#0 51857517#0.33 51857517#1 51857518#1 32978638#0"/>
    </vehicle>
    <vehicle id="914" depart="57695.90" departLane="free" departSpeed="max" fromTaz="taz_0" toTaz="taz_2">
        <route edges="653473569#5 164051413 104010475#0 104012170 -32124745 -32124743 -32124744 -201089423#2 -201089423#1 -32999434#1 32999110#0 402600768#0 402600768#1 51857517#0 51857517#0.33 51857517#1 51857516#1 -266565295#5"/>
    </vehicle>
    <vehicle id="223" depart="57701.43" departLane="free" departSpeed="max" fromTaz="taz_0" toTaz="taz_1">
        <route edges="653473569#5 164051413 104010475#0 104012170 -32124745 172488483#0 -83304175#2"/>
    </vehicle>
    <vehicle id="1693" depart="57701.87" departLane="free" departSpeed="max" fromTaz="taz_1" toTaz="taz_2">
        <route edges="27920078#0 27920078#1 -32124745 -32124743 -32124744 -201089423#2 -201089423#1 -32999434#1 32999110#0 -315358253#2 -315358253#1"/>
    </vehicle>
    <vehicle id="1908" depart="57703.47" departLane="free" departSpeed="max" fromTaz="taz_2" toTaz="taz_0">
        <route edges="266565295#5 32999435 32124637#0 32124637#1 168702040#1 168702040#2 168702040#3 168702040#4 168702039#1 32999434#0 201089423#0 201089423#2 32124744 32124743 285716192#0 285716192#0.83 201963535 104010354 124812857#0 201956811#0"/>
    </vehicle>
    <vehicle id="508" depart="57705.18" departLane="free" departSpeed="max" fromTaz="taz_0" toTaz="taz_1">
        <route edges="653473569#5 164051413 104010475#0 104012170 104010460#1 202070434#0 202070434#2"/>
    </vehicle>
    <vehicle id="1758" depart="57705.24" departLane="free" departSpeed="max" fromTaz="taz_1" toTaz="taz_2">
        <route edges="266565295#5 32999435 32124637#0 32124637#1 51857518#1 32978638#0"/>
    </vehicle>
    <vehicle id="399" depart="57706.94" departLane="free" departSpeed="max" fromTaz="taz_0" toTaz="taz_1">
        <route edges="10425609#0 10425609#1 201963537#1 104010475#0 104012170 -32124745 -32124743 -32124744 -201089423#2 -201089423#1 -32999434#1 32999110#0 402600768#0 402600768#1 51857517#0 51857517#0.33 51857517#1 51857516#1 -266565295#5"/>
    </vehicle>
    <vehicle id="367" depart="57707.93" departLane="free" departSpeed="max" fromTaz="taz_0" toTaz="taz_1">
        <route edges="-173169611#0 201956821#0 201956821#1.68 201963537#1 104010475#0 104012170 -32124745 172488483#0 -83304175#2"/>
    </vehicle>
    <vehicle id="694" depart="57708.25" departLane="free" departSpeed="max" fromTaz="taz_0" toTaz="taz_2">
        <route edges="653473569#5 164051413 104010475#0 104012170 -32124745 -32124743 -32124744 -201089423#2 -201089423#1 -32999434#1 32999110#0 402600768#0 402600768#1 51857517#0 51857517#0.33 51857517#1 51857518#1 32978638#0"/>
    </vehicle>
    <vehicle id="872" depart="57708.86" departLane="free" departSpeed="max" fromTaz="taz_0" toTaz="taz_2">
        <route edges="653473569#5 164051413 104010475#0 104012170 -32124745 -32124743 -32124744 -201089423#2 -201089423#1 -32999434#1 32999110#0 -315358253#2 -315358253#1"/>
    </vehicle>
    <vehicle id="2841" depart="57709.13" departLane="free" departSpeed="max" fromTaz="taz_2" toTaz="taz_2">
        <route edges="-32978638#0 32021112#0 168702040#1 168702040#2 168702040#3 168702040#4 -315358253#2 -315358253#1"/>
    </vehicle>
    <vehicle id="883" depart="57710.09" departLane="free" departSpeed="max" fromTaz="taz_0" toTaz="taz_2">
        <route edges="124812856#0 124812856#1 201956821#0 201956821#1.68 201963537#1 104010475#0 104012170 -32124745 -32124743 -32124744 -201089423#2 -201089423#1 -32999434#1 32999110#0 -315358253#2 -315358253#1"/>
    </vehicle>
    <vehicle id="2784" depart="57712.78" departLane="free" departSpeed="max" fromTaz="taz_2" toTaz="taz_2">
        <route edges="266565295#5 32999435 32124637#0 32124637#1 51857518#1 32978638#0"/>
    </vehicle>
    <vehicle id="1650" depart="57713.22" departLane="free" departSpeed="max" fromTaz="taz_1" toTaz="taz_2">
        <route edges="24599188#0.94 172488482#0 -32124744 -201089423#2 -201089423#1 -32999434#1 32999110#0 -315358253#2 -315358253#1"/>
    </vehicle>
    <vehicle id="370" depart="57714.89" departLane="free" departSpeed="max" fromTaz="taz_0" toTaz="taz_1">
        <route edges="124812856#0 124812856#1 201956821#0 201956821#1.68 201963537#1 104010475#0 104012170 -32124745 -32124743 -32124744 -201089423#2 -201089423#1 -32999434#1 32999110#0 402600768#0 402600768#1 51857517#0 51857517#0.33 51857517#1 51857516#1 -266565295#5"/>
    </vehicle>
    <vehicle id="129" depart="57716.59" departLane="free" departSpeed="max" fromTaz="taz_0" toTaz="taz_0">
        <route edges="10425609#0 10425609#1 201956819#0 201956820"/>
    </vehicle>
    <vehicle id="1949" depart="57721.15" departLane="free" departSpeed="max" fromTaz="taz_2" toTaz="taz_0">
        <route edges="266565295#5 32999435 32124637#0 32124637#1 168702040#1 168702040#2 168702040#3 168702040#4 168702039#1 32999434#0 201089423#0 201089423#2 32124744 32124743 285716192#0 285716192#0.83 201963535 104010354 124812857#0 201956819#0 201956810"/>
    </vehicle>
    <vehicle id="1833" depart="57721.91" departLane="free" departSpeed="max" fromTaz="taz_2" toTaz="taz_0">
        <route edges="266565295#5 32999435 32124637#0 32124637#1 168702040#1 168702040#2 168702040#3 168702040#4 168702039#1 32999434#0 201089423#0 201089423#2 32124744 32124743 285716192#0 285716192#0.83 201963535 104010354 124812857#0 201956819#0 201956820"/>
    </vehicle>
    <vehicle id="943" depart="57727.28" departLane="free" departSpeed="max" fromTaz="taz_0" toTaz="taz_2">
        <route edges="653473569#5 164051413 104010475#0 104012170 -32124745 -32124743 -32124744 -201089423#2 -201089423#1 -32999434#1 32999110#0 -315358253#2 -315358253#1"/>
    </vehicle>
    <vehicle id="1578" depart="57728.15" departLane="free" departSpeed="max" fromTaz="taz_1" toTaz="taz_2">
        <route edges="266565295#5 32999435 32124637#0 32124637#1 168702040#1 168702040#2 168702040#3 168702040#4 -315358253#2 -315358253#1"/>
    </vehicle>
    <vehicle id="1512" depart="57728.61" departLane="free" departSpeed="max" fromTaz="taz_1" toTaz="taz_2">
        <route edges="-32978638#0 32021112#0 168702040#1 168702040#2 168702040#3 168702040#4 -315358253#2 -315358253#1"/>
    </vehicle>
    <vehicle id="1252" depart="57735.95" departLane="free" departSpeed="max" fromTaz="taz_1" toTaz="taz_0">
        <route edges="-24693977#1 -24693977#0 201089423#0 201089423#2 32124744 32124743 285716192#0 285716192#0.83 201963535 104010354 -164051413 -653473569#5"/>
    </vehicle>
    <vehicle id="1648" depart="57736.02" departLane="free" departSpeed="max" fromTaz="taz_1" toTaz="taz_2">
        <route edges="266565295#5 32999435 32124637#0 32124637#1 168702040#1 168702040#2 168702040#3 168702040#4 -315358253#2 -315358253#1"/>
    </vehicle>
    <vehicle id="2781" depart="57736.05" departLane="free" departSpeed="max" fromTaz="taz_2" toTaz="taz_2">
        <route edges="315358253#1 315358253#2 402600768#0 402600768#1 51857517#0 51857517#0.33 51857517#1 51857518#1 32978638#0"/>
    </vehicle>
    <vehicle id="2486" depart="57737.39" departLane="free" departSpeed="max" fromTaz="taz_2" toTaz="taz_1">
        <route edges="315358253#1 315358253#2 402600768#0 402600768#1 51857517#0 51857517#0.33 51857517#1 51857518#1 32978638#0"/>
    </vehicle>
    <vehicle id="919" depart="57738.74" departLane="free" departSpeed="max" fromTaz="taz_0" toTaz="taz_2">
        <route edges="10425609#0 10425609#1 201963537#1 104010475#0 104012170 -32124745 -32124743 -32124744 -201089423#2 -201089423#1 -32999434#1 32999110#0 402600768#0 402600768#1 51857517#0 51857517#0.33 51857517#1 51857516#1 -266565295#5"/>
    </vehicle>
    <vehicle id="2629" depart="57741.46" departLane="free" departSpeed="max" fromTaz="taz_2" toTaz="taz_2">
        <route edges="315358253#1 315358253#2 402600768#0 402600768#1 51857517#0 51857517#0.33 51857517#1 51857518#1 32978638#0"/>
    </vehicle>
    <vehicle id="647" depart="57745.86" departLane="free" departSpeed="max" fromTaz="taz_0" toTaz="taz_2">
        <route edges="653473569#5 164051413 104010475#0 104012170 -32124745 -32124743 -32124744 -201089423#2 -201089423#1 -32999434#1 32999110#0 402600768#0 402600768#1 51857517#0 51857517#0.33 51857517#1 51857516#1 -266565295#5"/>
    </vehicle>
    <vehicle id="1574" depart="57746.43" departLane="free" departSpeed="max" fromTaz="taz_1" toTaz="taz_2">
        <route edges="315358253#1 315358253#2 402600768#0 402600768#1 51857517#0 51857517#0.33 51857517#1 51857516#1 -266565295#5"/>
    </vehicle>
    <vehicle id="318" depart="57750.40" departLane="free" departSpeed="max" fromTaz="taz_0" toTaz="taz_1">
        <route edges="124812856#0 124812856#1 201956821#0 201956821#1.68 201963537#1 104010475#0 104012170 -32124745 -32124743 -32124744 -201089423#2 -201089423#1 -32999434#1 32999110#0 402600768#0 402600768#1 51857517#0 51857517#0.33 51857517#1 51857516#1 -266565295#5"/>
    </vehicle>
    <vehicle id="2725" depart="57750.88" departLane="free" departSpeed="max" fromTaz="taz_2" toTaz="taz_2">
        <route edges="-32978638#0 32021112#0 51857516#1 -266565295#5"/>
    </vehicle>
    <vehicle id="546" depart="57753.28" departLane="free" departSpeed="max" fromTaz="taz_0" toTaz="taz_1">
        <route edges="-173169611#0 201956821#0 201956821#1.68 201963537#1 104010475#0 104012170 -32124745 -32124743 -32124744 -201089423#2 -201089423#1 24693977#0 24693977#1"/>
    </vehicle>
    <vehicle id="565" depart="57753.62" departLane="free" departSpeed="max" fromTaz="taz_0" toTaz="taz_1">
        <route edges="653473569#5 164051413 104010475#0 104012170 -32124745 -32124743 -32124744 -201089423#2 -201089423#1 -32999434#1 32999110#0 402600768#0 402600768#1 51857517#0 51857517#0.33 51857517#1 51857518#1 32978638#0"/>
    </vehicle>
    <vehicle id="1843" depart="57754.57" departLane="free" departSpeed="max" fromTaz="taz_2" toTaz="taz_0">
        <route edges="266565295#5 32999435 32124637#0 32124637#1 168702040#1 168702040#2 168702040#3 168702040#4 168702039#1 32999434#0 201089423#0 201089423#2 32124744 32124743 285716192#0 285716192#0.83 201963535 104010354 124812857#0 201956819#0 201956810"/>
    </vehicle>
    <vehicle id="1547" depart="57754.88" departLane="free" departSpeed="max" fromTaz="taz_1" toTaz="taz_2">
        <route edges="27920078#0 27920078#1 -32124745 -32124743 -32124744 -201089423#2 -201089423#1 -32999434#1 32999110#0 402600768#0 402600768#1 51857517#0 51857517#0.33 51857517#1 51857518#1 32978638#0"/>
    </vehicle>
    <vehicle id="1413" depart="57758.23" departLane="free" departSpeed="max" fromTaz="taz_1" toTaz="taz_1">
        <route edges="24599188#0.94 172488482#0 -32124744 -201089423#2 -201089423#1 -32999434#1 32999110#0 402600768#0 402600768#1 51857517#0 51857517#0.33 51857517#1 51857516#1 -266565295#5"/>
    </vehicle>
    <vehicle id="649" depart="57759.54" departLane="free" departSpeed="max" fromTaz="taz_0" toTaz="taz_2">
        <route edges="-173169611#0 201956821#0 201956821#1.68 201963537#1 104010475#0 104012170 -32124745 -32124743 -32124744 -201089423#2 -201089423#1 -32999434#1 32999110#0 402600768#0 402600768#1 51857517#0 51857517#0.33 51857517#1 51857516#1 -266565295#5"/>
    </vehicle>
    <vehicle id="2053" depart="57762.42" departLane="free" departSpeed="max" fromTaz="taz_2" toTaz="taz_0">
        <route edges="266565295#5 32999435 32124637#0 32124637#1 168702040#1 168702040#2 168702040#3 168702040#4 168702039#1 32999434#0 201089423#0 201089423#2 32124744 32124743 285716192#0 285716192#0.83 201963535 104010354 -164051413 -653473569#5"/>
    </vehicle>
    <vehicle id="19" depart="57763.02" departLane="free" departSpeed="max" fromTaz="taz_0" toTaz="taz_0">
        <route edges="-173169611#0 201956821#0 201956821#1.68 201963537#1 -164051413 -653473569#5"/>
    </vehicle>