<?xml version="1.0" encoding="UTF-8"?>

<!-- generated on 2023-05-05 11:58:58 by Eclipse SUMO duarouter Version 1.16.0
<configuration xmlns:xsi="http://www.w3.org/2001/XMLSchema-instance" xsi:noNamespaceSchemaLocation="http://sumo.dlr.de/xsd/duarouterConfiguration.xsd">

    <input>
        <net-file value="ingolstadt7.net.xml"/>
        <route-files value="ind7-synx.trips.xml"/>
    </input>

    <output>
        <output-file value="ind7-synx.rou.xml"/>
    </output>

    <processing>
        <repair value="true"/>
    </processing>

    <report>
        <ignore-errors value="true"/>
    </report>

</configuration>
-->

<routes xmlns:xsi="http://www.w3.org/2001/XMLSchema-instance" xsi:noNamespaceSchemaLocation="http://sumo.dlr.de/xsd/routes_file.xsd">
    <vehicle id="149" depart="57601.15" departLane="free" departSpeed="max" fromTaz="taz_0" toTaz="taz_1">
        <route edges="124812856#0 124812856#1 201956821#0 201956821#1.68 201963537#1 104010475#0 104012170 -32124745 -32124743 -32124744 -201089423#2 -201089423#1 -32999434#1 32999110#0 -315358253#2 -315358253#1"/>
    </vehicle>
    <vehicle id="138" depart="57601.83" departLane="free" departSpeed="max" fromTaz="taz_0" toTaz="taz_1">
        <route edges="10425609#0 10425609#1 201963537#1 104010475#0 104012170 -32124745 -32124743 -32124744 -201089423#2 -201089423#1 24693977#0 24693977#1"/>
    </vehicle>
    <vehicle id="62" depart="57606.36" departLane="free" departSpeed="max" fromTaz="taz_0" toTaz="taz_1">
        <route edges="-173169611#0 201956821#0 201956821#1.68 201963537#1 104010475#0 104012170 -32124745 -32124743 -32124744 -201089423#2 -201089423#1 24693977#0 24693977#1"/>
    </vehicle>
    <vehicle id="506" depart="57606.97" departLane="free" departSpeed="max" fromTaz="taz_2" toTaz="taz_0">
        <route edges="315358253#1 315358253#2 168702039#1 32999434#0 201089423#0 201089423#2 32124744 32124743 285716192#0 285716192#0.83 201963535 104010354 124812857#0 201956819#0 201956820"/>
    </vehicle>
    <vehicle id="537" depart="57607.29" departLane="free" departSpeed="max" fromTaz="taz_2" toTaz="taz_1">
        <route edges="-32978638#0 32021112#0 51857516#1 -266565295#5"/>
    </vehicle>
    <vehicle id="121" depart="57607.90" departLane="free" departSpeed="max" fromTaz="taz_0" toTaz="taz_1">
        <route edges="124812856#0 124812856#1 201956821#0 201956821#1.68 201963537#1 104010475#0 104012170 -32124745 -32124743 -32124744 -201089423#2 -201089423#1 -32999434#1 32999110#0 402600768#0 402600768#1 51857517#0 51857517#0.33 51857517#1 51857516#1 -266565295#5"/>
    </vehicle>
    <vehicle id="329" depart="57608.55" departLane="free" departSpeed="max" fromTaz="taz_1" toTaz="taz_1">
        <route edges="266565295#5 32999435 32124637#0 32124637#1 168702040#1 168702040#2 168702040#3 168702040#4 168702039#1 32999434#0 24693977#0 24693977#1"/>
    </vehicle>
    <vehicle id="541" depart="57608.91" departLane="free" departSpeed="max" fromTaz="taz_2" toTaz="taz_1">
        <route edges="266565295#5 32999435 32124637#0 32124637#1 168702040#1 168702040#2 168702040#3 168702040#4 168702039#1 32999434#0 201089423#0 201089423#2 32124744 32124743 285716192#0 285716192#0.83 104010439#1 202070434#0 202070434#2"/>
    </vehicle>
    <vehicle id="244" depart="57611.12" departLane="free" departSpeed="max" fromTaz="taz_1" toTaz="taz_0">
        <route edges="315358253#1 315358253#2 168702039#1 32999434#0 201089423#0 201089423#2 32124744 32124743 285716192#0 285716192#0.83 201963535 104010354 124812857#0 201956819#0 201956820"/>
    </vehicle>
    <vehicle id="523" depart="57612.98" departLane="free" departSpeed="max" fromTaz="taz_2" toTaz="taz_0">
        <route edges="266565295#5 32999435 32124637#0 32124637#1 168702040#1 168702040#2 168702040#3 168702040#4 168702039#1 32999434#0 201089423#0 201089423#2 32124744 32124743 285716192#0 285716192#0.83 201963535 104010354 124812857#0 201956819#0 201956810"/>
    </vehicle>
    <vehicle id="68" depart="57613.56" departLane="free" departSpeed="max" fromTaz="taz_0" toTaz="taz_1">
        <route edges="-173169611#0 201956821#0 201956821#1.68 201963537#1 104010475#0 104012170 104010460#1 202070434#0 202070434#2"/>
    </vehicle>
    <vehicle id="450" depart="57617.18" departLane="free" departSpeed="max" fromTaz="taz_2" toTaz="taz_0">
        <route edges="266565295#5 32999435 32124637#0 32124637#1 168702040#1 168702040#2 168702040#3 168702040#4 168702039#1 32999434#0 201089423#0 201089423#2 32124744 32124743 285716192#0 285716192#0.83 201963535 104010354 124812857#0 201956811#0"/>
    </vehicle>
    <vehicle id="109" depart="57617.50" departLane="free" departSpeed="max" fromTaz="taz_0" toTaz="taz_1">
        <route edges="124812856#0 124812856#1 201956821#0 201956821#1.68 201963537#1 104010475#0 104012170 -32124745 -32124743 -32124744 -201089423#2 -201089423#1 -32999434#1 32999110#0 402600768#0 402600768#1 51857517#0 51857517#0.33 51857517#1 51857516#1 -266565295#5"/>
    </vehicle>
    <vehicle id="488" depart="57617.68" departLane="free" departSpeed="max" fromTaz="taz_2" toTaz="taz_0">
        <route edges="315358253#1 315358253#2 168702039#1 32999434#0 201089423#0 201089423#2 32124744 32124743 285716192#0 285716192#0.83 201963535 104010354 124812857#0 201956811#0"/>
    </vehicle>
    <vehicle id="168" depart="57617.81" departLane="free" departSpeed="max" fromTaz="taz_0" toTaz="taz_2">
        <route edges="124812856#0 124812856#1 201956821#0 201956821#1.68 201963537#1 104010475#0 104012170 -32124745 -32124743 -32124744 -201089423#2 -201089423#1 -32999434#1 32999110#0 -315358253#2 -315358253#1"/>
    </vehicle>
    <vehicle id="29" depart="57618.13" departLane="free" departSpeed="max" fromTaz="taz_0" toTaz="taz_0">
        <route edges="-173169611#0 201956820"/>
    </vehicle>
    <vehicle id="220" depart="57618.68" departLane="free" departSpeed="max" fromTaz="taz_0" toTaz="taz_2">
        <route edges="124812856#0 124812856#1 201956821#0 201956821#1.68 201963537#1 104010475#0 104012170 -32124745 -32124743 -32124744 -201089423#2 -201089423#1 -32999434#1 32999110#0 -315358253#2 -315358253#1"/>
    </vehicle>
    <vehicle id="490" depart="57619.74" departLane="free" departSpeed="max" fromTaz="taz_2" toTaz="taz_0">
        <route edges="266565295#5 32999435 32124637#0 32124637#1 168702040#1 168702040#2 168702040#3 168702040#4 168702039#1 32999434#0 201089423#0 201089423#2 32124744 32124743 285716192#0 285716192#0.83 201963535 104010354 124812857#0 201956819#0 201956810"/>
    </vehicle>
    <vehicle id="624" depart="57624.98" departLane="free" departSpeed="max" fromTaz="taz_2" toTaz="taz_2">
        <route edges="315358253#1 315358253#2 402600768#0 402600768#1 51857517#0 51857517#0.33 51857517#1 51857518#1 32978638#0"/>
    </vehicle>
    <vehicle id="59" depart="57627.48" departLane="free" departSpeed="max" fromTaz="taz_0" toTaz="taz_1">
        <route edges="10425609#0 10425609#1 201963537#1 104010475#0 104012170 -32124745 -32124743 -32124744 -201089423#2 -201089423#1 -32999434#1 32999110#0 402600768#0 402600768#1 51857517#0 51857517#0.33 51857517#1 51857516#1 -266565295#5"/>
    </vehicle>
    <vehicle id="83" depart="57630.86" departLane="free" departSpeed="max" fromTaz="taz_0" toTaz="taz_1">
        <route edges="10425609#0 10425609#1 201963537#1 104010475#0 104012170 -32124745 -32124743 -32124744 -201089423#2 -201089423#1 -32999434#1 32999110#0 402600768#0 402600768#1 51857517#0 51857517#0.33 51857517#1 51857518#1 32978638#0"/>
    </vehicle>
    <vehicle id="526" depart="57630.89" departLane="free" departSpeed="max" fromTaz="taz_2" toTaz="taz_1">
        <route edges="266565295#5 32999435 32124637#0 32124637#1 168702040#1 168702040#2 168702040#3 168702040#4 168702039#1 32999434#0 201089423#0 201089423#2 32124744 32124743 285716192#0 285716192#0.83 104010439#1 202070434#0 202070434#2"/>
    </vehicle>
    <vehicle id="575" depart="57631.44" departLane="free" departSpeed="max" fromTaz="taz_2" toTaz="taz_1">
        <route edges="266565295#5 32999435 32124637#0 32124637#1 168702040#1 168702040#2 168702040#3 168702040#4 -315358253#2 -315358253#1"/>
    </vehicle>
    <vehicle id="254" depart="57631.69" departLane="free" departSpeed="max" fromTaz="taz_1" toTaz="taz_0">
        <route edges="-32978638#0 32021112#0 168702040#1 168702040#2 168702040#3 168702040#4 168702039#1 32999434#0 201089423#0 201089423#2 32124744 32124743 285716192#0 285716192#0.83 201963535 104010354 124812857#0 201956811#0"/>
    </vehicle>
    <vehicle id="272" depart="57632.34" departLane="free" departSpeed="max" fromTaz="taz_1" toTaz="taz_0">
        <route edges="266565295#5 32999435 32124637#0 32124637#1 168702040#1 168702040#2 168702040#3 168702040#4 168702039#1 32999434#0 201089423#0 201089423#2 32124744 32124743 285716192#0 285716192#0.83 201963535 104010354 -164051413 -653473569#5"/>
    </vehicle>
    <vehicle id="141" depart="57633.22" departLane="free" departSpeed="max" fromTaz="taz_0" toTaz="taz_1">
        <route edges="10425609#0 10425609#1 201963537#1 104010475#0 104012170 -32124745 -32124743 -32124744 -201089423#2 -201089423#1 -32999434#1 32999110#0 402600768#0 402600768#1 51857517#0 51857517#0.33 51857517#1 51857516#1 -266565295#5"/>
    </vehicle>
    <vehicle id="504" depart="57633.79" departLane="free" departSpeed="max" fromTaz="taz_2" toTaz="taz_0">
        <route edges="266565295#5 32999435 32124637#0 32124637#1 168702040#1 168702040#2 168702040#3 168702040#4 168702039#1 32999434#0 201089423#0 201089423#2 32124744 32124743 285716192#0 285716192#0.83 201963535 104010354 124812857#0 201956819#0 201956810"/>
    </vehicle>
    <vehicle id="23" depart="57635.86" departLane="free" departSpeed="max" fromTaz="taz_0" toTaz="taz_0">
        <route edges="10425609#0 10425609#1 201963537#1 -164051413 -653473569#5"/>
    </vehicle>
    <vehicle id="305" depart="57637.11" departLane="free" departSpeed="max" fromTaz="taz_1" toTaz="taz_1">
        <route edges="-24693977#1 -24693977#0 -32999434#1 32999110#0 402600768#0 402600768#1 51857517#0 51857517#0.33 51857517#1 51857518#1 32978638#0"/>
    </vehicle>
    <vehicle id="205" depart="57637.12" departLane="free" departSpeed="max" fromTaz="taz_0" toTaz="taz_2">
        <route edges="653473569#5 164051413 104010475#0 104012170 -32124745 -32124743 -32124744 -201089423#2 -201089423#1 -32999434#1 32999110#0 -315358253#2 -315358253#1"/>
    </vehicle>
    <vehicle id="292" depart="57637.27" departLane="free" departSpeed="max" fromTaz="taz_1" toTaz="taz_0">
        <route edges="-32978638#0 32021112#0 168702040#1 168702040#2 168702040#3 168702040#4 168702039#1 32999434#0 201089423#0 201089423#2 32124744 32124743 285716192#0 285716192#0.83 201963535 104010354 124812857#0 201956819#0 201956810"/>
    </vehicle>
    <vehicle id="12" depart="57637.69" departLane="free" departSpeed="max" fromTaz="taz_0" toTaz="taz_0">
        <route edges="-173169611#0 201956821#0 201956821#1.68 201963537#1 -164051413 -653473569#5"/>
    </vehicle>
    <vehicle id="312" depart="57639.02" departLane="free" departSpeed="max" fromTaz="taz_1" toTaz="taz_1">
        <route edges="27920078#0 118362731 202070434#2"/>
    </vehicle>
    <vehicle id="222" depart="57639.30" departLane="free" departSpeed="max" fromTaz="taz_0" toTaz="taz_2">
        <route edges="124812856#0 124812856#1 201956821#0 201956821#1.68 201963537#1 104010475#0 104012170 -32124745 -32124743 -32124744 -201089423#2 -201089423#1 -32999434#1 32999110#0 -315358253#2 -315358253#1"/>
    </vehicle>
    <vehicle id="279" depart="57639.43" departLane="free" departSpeed="max" fromTaz="taz_1" toTaz="taz_0">
        <route edges="27920078#0 27920078#1 201963535 104010354 124812857#0 201956819#0 201956810"/>
    </vehicle>
    <vehicle id="365" depart="57641.59" departLane="free" departSpeed="max" fromTaz="taz_1" toTaz="taz_2">
        <route edges="24599188#0.94 172488482#0 -32124744 -201089423#2 -201089423#1 -32999434#1 32999110#0 -315358253#2 -315358253#1"/>
    </vehicle>
    <vehicle id="76" depart="57642.16" departLane="free" departSpeed="max" fromTaz="taz_0" toTaz="taz_1">
        <route edges="653473569#5 164051413 104010475#0 104012170 -32124745 -32124743 -32124744 -201089423#2 -201089423#1 -32999434#1 32999110#0 402600768#0 402600768#1 51857517#0 51857517#0.33 51857517#1 51857516#1 -266565295#5"/>
    </vehicle>
    <vehicle id="519" depart="57651.44" departLane="free" departSpeed="max" fromTaz="taz_2" toTaz="taz_0">
        <route edges="315358253#1 315358253#2 168702039#1 32999434#0 201089423#0 201089423#2 32124744 32124743 285716192#0 285716192#0.83 201963535 104010354 124812857#0 201956819#0 201956820"/>
    </vehicle>
    <vehicle id="591" depart="57653.69" departLane="free" departSpeed="max" fromTaz="taz_2" toTaz="taz_1">
        <route edges="266565295#5 32999435 32124637#0 32124637#1 168702040#1 168702040#2 168702040#3 168702040#4 168702039#1 32999434#0 201089423#0 201089423#2 32124744 32124743 285716192#0 285716192#0.83 104010439#1 202070434#0 202070434#2"/>
    </vehicle>
    <vehicle id="461" depart="57654.60" departLane="free" departSpeed="max" fromTaz="taz_2" toTaz="taz_0">
        <route edges="315358253#1 315358253#2 168702039#1 32999434#0 201089423#0 201089423#2 32124744 32124743 285716192#0 285716192#0.83 201963535 104010354 -164051413 -653473569#5"/>
    </vehicle>
    <vehicle id="6" depart="57655.65" departLane="free" departSpeed="max" fromTaz="taz_0" toTaz="taz_0">
        <route edges="-173169611#0 201956821#0 201956821#1.68 201956811#0"/>
    </vehicle>
    <vehicle id="50" depart="57657.85" departLane="free" departSpeed="max" fromTaz="taz_0" toTaz="taz_1">
        <route edges="10425609#0 10425609#1 201963537#1 104010475#0 104012170 -32124745 -32124743 -32124744 -201089423#2 -201089423#1 -32999434#1 32999110#0 402600768#0 402600768#1 51857517#0 51857517#0.33 51857517#1 51857518#1 32978638#0"/>
    </vehicle>
    <vehicle id="623" depart="57658.21" departLane="free" departSpeed="max" fromTaz="taz_2" toTaz="taz_2">
        <route edges="266565295#5 32999435 32124637#0 32124637#1 168702040#1 168702040#2 168702040#3 168702040#4 -315358253#2 -315358253#1"/>
    </vehicle>
    <vehicle id="320" depart="57659.96" departLane="free" departSpeed="max" fromTaz="taz_1" toTaz="taz_1">
        <route edges="-32978638#0 32021112#0 168702040#1 168702040#2 168702040#3 168702040#4 -315358253#2 -315358253#1"/>
    </vehicle>
    <vehicle id="579" depart="57661.86" departLane="free" departSpeed="max" fromTaz="taz_2" toTaz="taz_1">
        <route edges="-32978638#0 32021112#0 51857516#1 -266565295#5"/>
    </vehicle>
    <vehicle id="359" depart="57667.41" departLane="free" departSpeed="max" fromTaz="taz_1" toTaz="taz_2">
        <route edges="-24693977#1 -24693977#0 -32999434#1 32999110#0 402600768#0 402600768#1 51857517#0 51857517#0.33 51857517#1 51857516#1 -266565295#5"/>
    </vehicle>
    <vehicle id="82" depart="57667.68" departLane="free" departSpeed="max" fromTaz="taz_0" toTaz="taz_1">
        <route edges="10425609#0 10425609#1 201963537#1 104010475#0 104012170 -32124745 -32124743 -32124744 -201089423#2 -201089423#1 -32999434#1 32999110#0 -315358253#2 -315358253#1"/>
    </vehicle>
    <vehicle id="348" depart="57670.57" departLane="free" departSpeed="max" fromTaz="taz_1" toTaz="taz_1">
        <route edges="27920078#0 27920078#1 -32124745 -32124743 -32124744 -201089423#2 -201089423#1 24693977#0 24693977#1"/>
    </vehicle>
    <vehicle id="596" depart="57670.72" departLane="free" departSpeed="max" fromTaz="taz_2" toTaz="taz_1">
        <route edges="266565295#5 32999435 32124637#0 32124637#1 168702040#1 168702040#2 168702040#3 168702040#4 -315358253#2 -315358253#1"/>
    </vehicle>
    <vehicle id="218" depart="57673.30" departLane="free" departSpeed="max" fromTaz="taz_0" toTaz="taz_2">
        <route edges="10425609#0 10425609#1 201963537#1 104010475#0 104012170 -32124745 -32124743 -32124744 -201089423#2 -201089423#1 -32999434#1 32999110#0 -315358253#2 -315358253#1"/>
    </vehicle>
    <vehicle id="586" depart="57673.98" departLane="free" departSpeed="max" fromTaz="taz_2" toTaz="taz_1">
        <route edges="-32978638#0 32021112#0 168702040#1 168702040#2 168702040#3 168702040#4 168702039#1 32999434#0 24693977#0 24693977#1"/>
    </vehicle>
    <vehicle id="535" depart="57676.20" departLane="free" departSpeed="max" fromTaz="taz_2" toTaz="taz_1">
        <route edges="315358253#1 315358253#2 168702039#1 32999434#0 24693977#0 24693977#1"/>
    </vehicle>
    <vehicle id="435" depart="57676.24" departLane="free" departSpeed="max" fromTaz="taz_2" toTaz="taz_0">
        <route edges="-32978638#0 32021112#0 168702040#1 168702040#2 168702040#3 168702040#4 168702039#1 32999434#0 201089423#0 201089423#2 32124744 32124743 285716192#0 285716192#0.83 201963535 104010354 124812857#0 201956819#0 201956820"/>
    </vehicle>
    <vehicle id="455" depart="57676.69" departLane="free" departSpeed="max" fromTaz="taz_2" toTaz="taz_0">
        <route edges="266565295#5 32999435 32124637#0 32124637#1 168702040#1 168702040#2 168702040#3 168702040#4 168702039#1 32999434#0 201089423#0 201089423#2 32124744 32124743 285716192#0 285716192#0.83 201963535 104010354 -164051413 -653473569#5"/>
    </vehicle>
    <vehicle id="417" depart="57677.89" departLane="free" departSpeed="max" fromTaz="taz_1" toTaz="taz_2">
        <route edges="27920078#0 27920078#1 -32124745 -32124743 -32124744 -201089423#2 -201089423#1 -32999434#1 32999110#0 402600768#0 402600768#1 51857517#0 51857517#0.33 51857517#1 51857516#1 -266565295#5"/>
    </vehicle>
    <vehicle id="66" depart="57680.26" departLane="free" departSpeed="max" fromTaz="taz_0" toTaz="taz_1">
        <route edges="124812856#0 124812856#1 201956821#0 201956821#1.68 201963537#1 104010475#0 104012170 -32124745 -32124743 -32124744 -201089423#2 -201089423#1 -32999434#1 32999110#0 402600768#0 402600768#1 51857517#0 51857517#0.33 51857517#1 51857516#1 -266565295#5"/>
    </vehicle>
    <vehicle id="404" depart="57680.90" departLane="free" departSpeed="max" fromTaz="taz_1" toTaz="taz_2">
        <route edges="266565295#5 32999435 32124637#0 32124637#1 168702040#1 168702040#2 168702040#3 168702040#4 -315358253#2 -315358253#1"/>
    </vehicle>
    <vehicle id="108" depart="57681.63" departLane="free" departSpeed="max" fromTaz="taz_0" toTaz="taz_1">
        <route edges="10425609#0 10425609#1 201963537#1 104010475#0 104012170 -32124745 -32124743 -32124744 -201089423#2 -201089423#1 24693977#0 24693977#1"/>
    </vehicle>
    <vehicle id="54" depart="57682.19" departLane="free" departSpeed="max" fromTaz="taz_0" toTaz="taz_1">
        <route edges="10425609#0 10425609#1 201963537#1 104010475#0 104012170 -32124745 -32124743 -32124744 -201089423#2 -201089423#1 24693977#0 24693977#1"/>
    </vehicle>
    <vehicle id="395" depart="57682.30" departLane="free" departSpeed="max" fromTaz="taz_1" toTaz="taz_2">
        <route edges="266565295#5 32999435 32124637#0 32124637#1 51857518#1 32978638#0"/>
    </vehicle>
    <vehicle id="553" depart="57687.02" departLane="free" departSpeed="max" fromTaz="taz_2" toTaz="taz_1">
        <route edges="315358253#1 315358253#2 168702039#1 32999434#0 24693977#0 24693977#1"/>
    </vehicle>
    <vehicle id="645" depart="57689.41" departLane="free" departSpeed="max" fromTaz="taz_2" toTaz="taz_2">
        <route edges="266565295#5 32999435 32124637#0 32124637#1 168702040#1 168702040#2 168702040#3 168702040#4 -315358253#2 -315358253#1"/>
    </vehicle>
    <vehicle id="97" depart="57689.60" departLane="free" departSpeed="max" fromTaz="taz_0" toTaz="taz_1">
        <route edges="653473569#5 164051413 104010475#0 104012170 -32124745 -32124743 -32124744 -201089423#2 -201089423#1 24693977#0 24693977#1"/>
    </vehicle>
    <vehicle id="438" depart="57689.81" departLane="free" departSpeed="max" fromTaz="taz_2" toTaz="taz_0">
        <route edges="-32978638#0 32021112#0 168702040#1 168702040#2 168702040#3 168702040#4 168702039#1 32999434#0 201089423#0 201089423#2 32124744 32124743 285716192#0 285716192#0.83 201963535 104010354 124812857#0 201956819#0 201956810"/>
    </vehicle>
    <vehicle id="547" depart="57689.81" departLane="free" departSpeed="max" fromTaz="taz_2" toTaz="taz_1">
        <route edges="-32978638#0 32021112#0 51857516#1 -266565295#5"/>
    </vehicle>
    <vehicle id="216" depart="57690.47" departLane="free" departSpeed="max" fromTaz="taz_0" toTaz="taz_2">
        <route edges="-173169611#0 201956821#0 201956821#1.68 201963537#1 104010475#0 104012170 -32124745 -32124743 -32124744 -201089423#2 -201089423#1 -32999434#1 32999110#0 402600768#0 402600768#1 51857517#0 51857517#0.33 51857517#1 51857518#1 32978638#0"/>
    </vehicle>
    <vehicle id="634" depart="57693.42" departLane="free" departSpeed="max" fromTaz="taz_2" toTaz="taz_2">
        <route edges="-32978638#0 32021112#0 51857516#1 -266565295#5"/>
    </vehicle>
    <vehicle id="297" depart="57695.87" departLane="free" departSpeed="max" fromTaz="taz_1" toTaz="taz_0">
        <route edges="266565295#5 32999435 32124637#0 32124637#1 168702040#1 168702040#2 168702040#3 168702040#4 168702039#1 32999434#0 201089423#0 201089423#2 32124744 32124743 285716192#0 285716192#0.83 201963535 104010354 124812857#0 201956819#0 201956820"/>
    </vehicle>
    <vehicle id="478" depart="57697.21" departLane="free" departSpeed="max" fromTaz="taz_2" toTaz="taz_0">
        <route edges="315358253#1 315358253#2 168702039#1 32999434#0 201089423#0 201089423#2 32124744 32124743 285716192#0 285716192#0.83 201963535 104010354 -164051413 -653473569#5"/>
    </vehicle>
    <vehicle id="494" depart="57697.46" departLane="free" departSpeed="max" fromTaz="taz_2" toTaz="taz_0">
        <route edges="315358253#1 315358253#2 168702039#1 32999434#0 201089423#0 201089423#2 32124744 32124743 285716192#0 285716192#0.83 201963535 104010354 124812857#0 201956819#0 201956820"/>
    </vehicle>
    <vehicle id="543" depart="57699.72" departLane="free" departSpeed="max" fromTaz="taz_2" toTaz="taz_1">
        <route edges="266565295#5 32999435 32124637#0 32124637#1 168702040#1 168702040#2 168702040#3 168702040#4 -315358253#2 -315358253#1"/>
    </vehicle>
    <vehicle id="90" depart="57700.72" departLane="free" departSpeed="max" fromTaz="taz_0" toTaz="taz_1">
        <route edges="124812856#0 124812856#1 201956821#0 201956821#1.68 201963537#1 104010475#0 104012170 -32124745 172488483#0 -83304175#2"/>
    </vehicle>
    <vehicle id="46" depart="57701.67" departLane="free" departSpeed="max" fromTaz="taz_0" toTaz="taz_0">
        <route edges="10425609#0 10425609#1 201956819#0 201956820"/>
    </vehicle>
    <vehicle id="507" depart="57705.18" departLane="free" departSpeed="max" fromTaz="taz_2" toTaz="taz_0">
        <route edges="315358253#1 315358253#2 168702039#1 32999434#0 201089423#0 201089423#2 32124744 32124743 285716192#0 285716192#0.83 201963535 104010354 124812857#0 201956819#0 201956820"/>
    </vehicle>
    <vehicle id="73" depart="57706.81" departLane="free" departSpeed="max" fromTaz="taz_0" toTaz="taz_1">
        <route edges="653473569#5 164051413 104010475#0 104012170 -32124745 -32124743 -32124744 -201089423#2 -201089423#1 -32999434#1 32999110#0 -315358253#2 -315358253#1"/>
    </vehicle>
    <vehicle id="253" depart="57706.83" departLane="free" departSpeed="max" fromTaz="taz_1" toTaz="taz_0">
        <route edges="27920078#0 27920078#1 201963535 104010354 124812857#0 201956819#0 201956820"/>
    </vehicle>
    <vehicle id="481" depart="57707.96" departLane="free" departSpeed="max" fromTaz="taz_2" toTaz="taz_0">
        <route edges="-32978638#0 32021112#0 168702040#1 168702040#2 168702040#3 168702040#4 168702039#1 32999434#0 201089423#0 201089423#2 32124744 32124743 285716192#0 285716192#0.83 201963535 104010354 124812857#0 201956811#0"/>
    </vehicle>
    <vehicle id="306" depart="57708.11" departLane="free" departSpeed="max" fromTaz="taz_1" toTaz="taz_1">
        <route edges="27920078#0 118362731 202070434#2"/>
    </vehicle>
    <vehicle id="53" depart="57708.52" departLane="free" departSpeed="max" fromTaz="taz_0" toTaz="taz_1">
        <route edges="124812856#0 124812856#1 201956821#0 201956821#1.68 201963537#1 104010475#0 104012170 -32124745 -32124743 -32124744 -201089423#2 -201089423#1 -32999434#1 32999110#0 -315358253#2 -315358253#1"/>
    </vehicle>
    <vehicle id="334" depart="57710.10" departLane="free" departSpeed="max" fromTaz="taz_1" toTaz="taz_1">
        <route edges="266565295#5 32999435 32124637#0 32124637#1 168702040#1 168702040#2 168702040#3 168702040#4 168702039#1 32999434#0 201089423#0 201089423#2 32124744 32124743 285716192#0 285716192#0.83 104010439#1 202070434#0 202070434#2"/>
    </vehicle>
    <vehicle id="398" depart="57711.65" departLane="free" departSpeed="max" fromTaz="taz_1" toTaz="taz_2">
        <route edges="315358253#1 315358253#2 402600768#0 402600768#1 51857517#0 51857517#0.33 51857517#1 51857516#1 -266565295#5"/>
    </vehicle>
    <vehicle id="385" depart="57713.70" departLane="free" departSpeed="max" fromTaz="taz_1" toTaz="taz_2">
        <route edges="-24693977#1 -24693977#0 -32999434#1 32999110#0 402600768#0 402600768#1 51857517#0 51857517#0.33 51857517#1 51857518#1 32978638#0"/>
    </vehicle>
    <vehicle id="231" depart="57715.67" departLane="free" departSpeed="max" fromTaz="taz_1" toTaz="taz_0">
        <route edges="-32978638#0 32021112#0 168702040#1 168702040#2 168702040#3 168702040#4 168702039#1 32999434#0 201089423#0 201089423#2 32124744 32124743 285716192#0 285716192#0.83 201963535 104010354 124812857#0 201956819#0 201956810"/>
    </vehicle>
    <vehicle id="198" depart="57716.57" departLane="free" departSpeed="max" fromTaz="taz_0" toTaz="taz_2">
        <route edges="-173169611#0 201956821#0 201956821#1.68 201963537#1 104010475#0 104012170 -32124745 -32124743 -32124744 -201089423#2 -201089423#1 -32999434#1 32999110#0 402600768#0 402600768#1 51857517#0 51857517#0.33 51857517#1 51857518#1 32978638#0"/>
    </vehicle>
    <vehicle id="356" depart="57720.51" departLane="free" departSpeed="max" fromTaz="taz_1" toTaz="taz_2">
        <route edges="-32978638#0 32021112#0 168702040#1 168702040#2 168702040#3 168702040#4 -315358253#2 -315358253#1"/>
    </vehicle>
    <vehicle id="39" depart="57722.15" departLane="free" departSpeed="max" fromTaz="taz_0" toTaz="taz_0">
        <route edges="-173169611#0 201956820"/>
    </vehicle>
    <vehicle id="370" depart="57724.63" departLane="free" departSpeed="max" fromTaz="taz_1" toTaz="taz_2">
        <route edges="27920078#0 27920078#1 -32124745 -32124743 -32124744 -201089423#2 -201089423#1 -32999434#1 32999110#0 402600768#0 402600768#1 51857517#0 51857517#0.33 51857517#1 51857518#1 32978638#0"/>
    </vehicle>
    <vehicle id="37" depart="57725.46" departLane="free" departSpeed="max" fromTaz="taz_0" toTaz="taz_0">
        <route edges="124812856#0 124812856#1 201956821#0 201956821#1.68 201963537#1 -164051413 -653473569#5"/>
    </vehicle>
    <vehicle id="609" depart="57726.10" departLane="free" departSpeed="max" fromTaz="taz_2" toTaz="taz_2">
        <route edges="315358253#1 315358253#2 402600768#0 402600768#1 51857517#0 51857517#0.33 51857517#1 51857518#1 32978638#0"/>
    </vehicle>
    <vehicle id="160" depart="57726.31" departLane="free" departSpeed="max" fromTaz="taz_0" toTaz="taz_2">
        <route edges="124812856#0 124812856#1 201956821#0 201956821#1.68 201963537#1 104010475#0 104012170 -32124745 -32124743 -32124744 -201089423#2 -201089423#1 -32999434#1 32999110#0 402600768#0 402600768#1 51857517#0 51857517#0.33 51857517#1 51857518#1 32978638#0"/>
    </vehicle>
    <vehicle id="140" depart="57726.77" departLane="free" departSpeed="max" fromTaz="taz_0" toTaz="taz_1">
        <route edges="124812856#0 124812856#1 201956821#0 201956821#1.68 201963537#1 104010475#0 104012170 -32124745 172488483#0 -83304175#2"/>
    </vehicle>
    <vehicle id="363" depart="57730.11" departLane="free" departSpeed="max" fromTaz="taz_1" toTaz="taz_2">
        <route edges="-32978638#0 32021112#0 168702040#1 168702040#2 168702040#3 168702040#4 -315358253#2 -315358253#1"/>
    </vehicle>
    <vehicle id="203" depart="57730.27" departLane="free" departSpeed="max" fromTaz="taz_0" toTaz="taz_2">
        <route edges="124812856#0 124812856#1 201956821#0 201956821#1.68 201963537#1 104010475#0 104012170 -32124745 -32124743 -32124744 -201089423#2 -201089423#1 -32999434#1 32999110#0 402600768#0 402600768#1 51857517#0 51857517#0.33 51857517#1 51857516#1 -266565295#5"/>
    </vehicle>
    <vehicle id="128" depart="57732.74" departLane="free" departSpeed="max" fromTaz="taz_0" toTaz="taz_1">
        <route edges="653473569#5 164051413 104010475#0 104012170 -32124745 -32124743 -32124744 -201089423#2 -201089423#1 -32999434#1 32999110#0 402600768#0 402600768#1 51857517#0 51857517#0.33 51857517#1 51857518#1 32978638#0"/>
    </vehicle>
    <vehicle id="469" depart="57733.71" departLane="free" departSpeed="max" fromTaz="taz_2" toTaz="taz_0">
        <route edges="-32978638#0 32021112#0 168702040#1 168702040#2 168702040#3 168702040#4 168702039#1 32999434#0 201089423#0 201089423#2 32124744 32124743 285716192#0 285716192#0.83 201963535 104010354 124812857#0 201956811#0"/>
    </vehicle>
    <vehicle id="94" depart="57734.92" departLane="free" departSpeed="max" fromTaz="taz_0" toTaz="taz_1">
        <route edges="-173169611#0 201956821#0 201956821#1.68 201963537#1 104010475#0 104012170 -32124745 172488483#0 -83304175#2"/>
    </vehicle>
    <vehicle id="491" depart="57735.11" departLane="free" departSpeed="max" fromTaz="taz_2" toTaz="taz_0">
        <route edges="-32978638#0 32021112#0 168702040#1 168702040#2 168702040#3 168702040#4 168702039#1 32999434#0 201089423#0 201089423#2 32124744 32124743 285716192#0 285716192#0.83 201963535 104010354 124812857#0 201956819#0 201956810"/>
    </vehicle>
    <vehicle id="60" depart="57736.13" departLane="free" departSpeed="max" fromTaz="taz_0" toTaz="taz_1">